
---------- Begin Simulation Statistics ----------
final_tick                                 1277009750                       # Number of ticks from beginning of simulation (restored from checkpoints and never reset)
host_inst_rate                                 181919                       # Simulator instruction rate (inst/s)
host_mem_usage                                2254700                       # Number of bytes of host memory used
host_op_rate                                   204688                       # Simulator op (including micro ops) rate (op/s)
host_seconds                                    20.81                       # Real time elapsed on the host
host_tick_rate                               61359407                       # Simulator tick rate (ticks/s)
sim_freq                                 1000000000000                       # Frequency of simulated ticks
sim_insts                                     3786065                       # Number of instructions simulated
sim_ops                                       4259963                       # Number of ops (including micro ops) simulated
sim_seconds                                  0.001277                       # Number of seconds simulated
sim_ticks                                  1277009750                       # Number of ticks simulated
system.clk_domain.clock                          1000                       # Clock period in ticks
system.cpu_cluster.clk_domain.clock               250                       # Clock period in ticks
system.cpu_cluster.cpus.branchPred.BTBCorrect            0                       # Number of correct BTB predictions (this stat may not work properly.
system.cpu_cluster.cpus.branchPred.BTBHitPct    74.283507                       # BTB Hit Percentage
system.cpu_cluster.cpus.branchPred.BTBHits       441273                       # Number of BTB hits
system.cpu_cluster.cpus.branchPred.BTBLookups       594039                       # Number of BTB lookups
system.cpu_cluster.cpus.branchPred.BTBMisses       152766                       # Number of BTB misses
system.cpu_cluster.cpus.branchPred.BTBMissesPct    25.716493                       # BTB Miss Percentage
system.cpu_cluster.cpus.branchPred.RASInCorrect            5                       # Number of incorrect RAS predictions.
system.cpu_cluster.cpus.branchPred.condIncorrect        49859                       # Number of conditional branches incorrect
system.cpu_cluster.cpus.branchPred.condPredicted       455579                       # Number of conditional branches predicted
system.cpu_cluster.cpus.branchPred.indirectHits           16                       # Number of indirect target hits.
system.cpu_cluster.cpus.branchPred.indirectLookups          169                       # Number of indirect predictor lookups.
system.cpu_cluster.cpus.branchPred.indirectMisses          153                       # Number of indirect misses.
system.cpu_cluster.cpus.branchPred.lookups       762510                       # Number of BP lookups
system.cpu_cluster.cpus.branchPred.usedRAS       107399                       # Number of times the RAS was used to get a target.
system.cpu_cluster.cpus.branchPredindirectMispredicted           65                       # Number of mispredicted indirect branches.
system.cpu_cluster.cpus.committedInsts        3786065                       # Number of instructions committed
system.cpu_cluster.cpus.committedOps          4259963                       # Number of ops (including micro ops) committed
system.cpu_cluster.cpus.cpi                  1.349168                       # CPI: cycles per instruction
system.cpu_cluster.cpus.dcache.HardPFReq_avg_mshr_miss_latency::.cpu_cluster.cpus.dcache.prefetcher 46319.680938                       # average HardPFReq mshr miss latency
system.cpu_cluster.cpus.dcache.HardPFReq_avg_mshr_miss_latency::total 46319.680938                       # average HardPFReq mshr miss latency
system.cpu_cluster.cpus.dcache.HardPFReq_mshr_miss_latency::.cpu_cluster.cpus.dcache.prefetcher     45439607                       # number of HardPFReq MSHR miss cycles
system.cpu_cluster.cpus.dcache.HardPFReq_mshr_miss_latency::total     45439607                       # number of HardPFReq MSHR miss cycles
system.cpu_cluster.cpus.dcache.HardPFReq_mshr_miss_rate::.cpu_cluster.cpus.dcache.prefetcher          inf                       # mshr miss rate for HardPFReq accesses
system.cpu_cluster.cpus.dcache.HardPFReq_mshr_miss_rate::total          inf                       # mshr miss rate for HardPFReq accesses
system.cpu_cluster.cpus.dcache.HardPFReq_mshr_misses::.cpu_cluster.cpus.dcache.prefetcher          981                       # number of HardPFReq MSHR misses
system.cpu_cluster.cpus.dcache.HardPFReq_mshr_misses::total          981                       # number of HardPFReq MSHR misses
system.cpu_cluster.cpus.dcache.LoadLockedReq_accesses::.cpu_cluster.cpus.data           18                       # number of LoadLockedReq accesses(hits+misses)
system.cpu_cluster.cpus.dcache.LoadLockedReq_accesses::total           18                       # number of LoadLockedReq accesses(hits+misses)
system.cpu_cluster.cpus.dcache.LoadLockedReq_avg_miss_latency::.cpu_cluster.cpus.data         4250                       # average LoadLockedReq miss latency
system.cpu_cluster.cpus.dcache.LoadLockedReq_avg_miss_latency::total         4250                       # average LoadLockedReq miss latency
system.cpu_cluster.cpus.dcache.LoadLockedReq_avg_mshr_miss_latency::.cpu_cluster.cpus.data         4000                       # average LoadLockedReq mshr miss latency
system.cpu_cluster.cpus.dcache.LoadLockedReq_avg_mshr_miss_latency::total         4000                       # average LoadLockedReq mshr miss latency
system.cpu_cluster.cpus.dcache.LoadLockedReq_hits::.cpu_cluster.cpus.data           17                       # number of LoadLockedReq hits
system.cpu_cluster.cpus.dcache.LoadLockedReq_hits::total           17                       # number of LoadLockedReq hits
system.cpu_cluster.cpus.dcache.LoadLockedReq_miss_latency::.cpu_cluster.cpus.data         4250                       # number of LoadLockedReq miss cycles
system.cpu_cluster.cpus.dcache.LoadLockedReq_miss_latency::total         4250                       # number of LoadLockedReq miss cycles
system.cpu_cluster.cpus.dcache.LoadLockedReq_miss_rate::.cpu_cluster.cpus.data     0.055556                       # miss rate for LoadLockedReq accesses
system.cpu_cluster.cpus.dcache.LoadLockedReq_miss_rate::total     0.055556                       # miss rate for LoadLockedReq accesses
system.cpu_cluster.cpus.dcache.LoadLockedReq_misses::.cpu_cluster.cpus.data            1                       # number of LoadLockedReq misses
system.cpu_cluster.cpus.dcache.LoadLockedReq_misses::total            1                       # number of LoadLockedReq misses
system.cpu_cluster.cpus.dcache.LoadLockedReq_mshr_miss_latency::.cpu_cluster.cpus.data         4000                       # number of LoadLockedReq MSHR miss cycles
system.cpu_cluster.cpus.dcache.LoadLockedReq_mshr_miss_latency::total         4000                       # number of LoadLockedReq MSHR miss cycles
system.cpu_cluster.cpus.dcache.LoadLockedReq_mshr_miss_rate::.cpu_cluster.cpus.data     0.055556                       # mshr miss rate for LoadLockedReq accesses
system.cpu_cluster.cpus.dcache.LoadLockedReq_mshr_miss_rate::total     0.055556                       # mshr miss rate for LoadLockedReq accesses
system.cpu_cluster.cpus.dcache.LoadLockedReq_mshr_misses::.cpu_cluster.cpus.data            1                       # number of LoadLockedReq MSHR misses
system.cpu_cluster.cpus.dcache.LoadLockedReq_mshr_misses::total            1                       # number of LoadLockedReq MSHR misses
system.cpu_cluster.cpus.dcache.ReadReq_accesses::.cpu_cluster.cpus.data      1192427                       # number of ReadReq accesses(hits+misses)
system.cpu_cluster.cpus.dcache.ReadReq_accesses::total      1192427                       # number of ReadReq accesses(hits+misses)
system.cpu_cluster.cpus.dcache.ReadReq_avg_miss_latency::.cpu_cluster.cpus.data  4570.239794                       # average ReadReq miss latency
system.cpu_cluster.cpus.dcache.ReadReq_avg_miss_latency::total  4570.239794                       # average ReadReq miss latency
system.cpu_cluster.cpus.dcache.ReadReq_avg_mshr_miss_latency::.cpu_cluster.cpus.data  4300.979608                       # average ReadReq mshr miss latency
system.cpu_cluster.cpus.dcache.ReadReq_avg_mshr_miss_latency::total  4300.979608                       # average ReadReq mshr miss latency
system.cpu_cluster.cpus.dcache.ReadReq_hits::.cpu_cluster.cpus.data      1174912                       # number of ReadReq hits
system.cpu_cluster.cpus.dcache.ReadReq_hits::total      1174912                       # number of ReadReq hits
system.cpu_cluster.cpus.dcache.ReadReq_miss_latency::.cpu_cluster.cpus.data     80047750                       # number of ReadReq miss cycles
system.cpu_cluster.cpus.dcache.ReadReq_miss_latency::total     80047750                       # number of ReadReq miss cycles
system.cpu_cluster.cpus.dcache.ReadReq_miss_rate::.cpu_cluster.cpus.data     0.014689                       # miss rate for ReadReq accesses
system.cpu_cluster.cpus.dcache.ReadReq_miss_rate::total     0.014689                       # miss rate for ReadReq accesses
system.cpu_cluster.cpus.dcache.ReadReq_misses::.cpu_cluster.cpus.data        17515                       # number of ReadReq misses
system.cpu_cluster.cpus.dcache.ReadReq_misses::total        17515                       # number of ReadReq misses
system.cpu_cluster.cpus.dcache.ReadReq_mshr_hits::.cpu_cluster.cpus.data            8                       # number of ReadReq MSHR hits
system.cpu_cluster.cpus.dcache.ReadReq_mshr_hits::total            8                       # number of ReadReq MSHR hits
system.cpu_cluster.cpus.dcache.ReadReq_mshr_miss_latency::.cpu_cluster.cpus.data     75297250                       # number of ReadReq MSHR miss cycles
system.cpu_cluster.cpus.dcache.ReadReq_mshr_miss_latency::total     75297250                       # number of ReadReq MSHR miss cycles
system.cpu_cluster.cpus.dcache.ReadReq_mshr_miss_rate::.cpu_cluster.cpus.data     0.014682                       # mshr miss rate for ReadReq accesses
system.cpu_cluster.cpus.dcache.ReadReq_mshr_miss_rate::total     0.014682                       # mshr miss rate for ReadReq accesses
system.cpu_cluster.cpus.dcache.ReadReq_mshr_misses::.cpu_cluster.cpus.data        17507                       # number of ReadReq MSHR misses
system.cpu_cluster.cpus.dcache.ReadReq_mshr_misses::total        17507                       # number of ReadReq MSHR misses
system.cpu_cluster.cpus.dcache.SoftPFReq_accesses::.cpu_cluster.cpus.data           34                       # number of SoftPFReq accesses(hits+misses)
system.cpu_cluster.cpus.dcache.SoftPFReq_accesses::total           34                       # number of SoftPFReq accesses(hits+misses)
system.cpu_cluster.cpus.dcache.SoftPFReq_avg_mshr_miss_latency::.cpu_cluster.cpus.data 69472.222222                       # average SoftPFReq mshr miss latency
system.cpu_cluster.cpus.dcache.SoftPFReq_avg_mshr_miss_latency::total 69472.222222                       # average SoftPFReq mshr miss latency
system.cpu_cluster.cpus.dcache.SoftPFReq_hits::.cpu_cluster.cpus.data           20                       # number of SoftPFReq hits
system.cpu_cluster.cpus.dcache.SoftPFReq_hits::total           20                       # number of SoftPFReq hits
system.cpu_cluster.cpus.dcache.SoftPFReq_miss_rate::.cpu_cluster.cpus.data     0.411765                       # miss rate for SoftPFReq accesses
system.cpu_cluster.cpus.dcache.SoftPFReq_miss_rate::total     0.411765                       # miss rate for SoftPFReq accesses
system.cpu_cluster.cpus.dcache.SoftPFReq_misses::.cpu_cluster.cpus.data           14                       # number of SoftPFReq misses
system.cpu_cluster.cpus.dcache.SoftPFReq_misses::total           14                       # number of SoftPFReq misses
system.cpu_cluster.cpus.dcache.SoftPFReq_mshr_miss_latency::.cpu_cluster.cpus.data       625250                       # number of SoftPFReq MSHR miss cycles
system.cpu_cluster.cpus.dcache.SoftPFReq_mshr_miss_latency::total       625250                       # number of SoftPFReq MSHR miss cycles
system.cpu_cluster.cpus.dcache.SoftPFReq_mshr_miss_rate::.cpu_cluster.cpus.data     0.264706                       # mshr miss rate for SoftPFReq accesses
system.cpu_cluster.cpus.dcache.SoftPFReq_mshr_miss_rate::total     0.264706                       # mshr miss rate for SoftPFReq accesses
system.cpu_cluster.cpus.dcache.SoftPFReq_mshr_misses::.cpu_cluster.cpus.data            9                       # number of SoftPFReq MSHR misses
system.cpu_cluster.cpus.dcache.SoftPFReq_mshr_misses::total            9                       # number of SoftPFReq MSHR misses
system.cpu_cluster.cpus.dcache.StoreCondReq_accesses::.cpu_cluster.cpus.data           18                       # number of StoreCondReq accesses(hits+misses)
system.cpu_cluster.cpus.dcache.StoreCondReq_accesses::total           18                       # number of StoreCondReq accesses(hits+misses)
system.cpu_cluster.cpus.dcache.StoreCondReq_hits::.cpu_cluster.cpus.data           18                       # number of StoreCondReq hits
system.cpu_cluster.cpus.dcache.StoreCondReq_hits::total           18                       # number of StoreCondReq hits
system.cpu_cluster.cpus.dcache.WriteReq_accesses::.cpu_cluster.cpus.data       584160                       # number of WriteReq accesses(hits+misses)
system.cpu_cluster.cpus.dcache.WriteReq_accesses::total       584160                       # number of WriteReq accesses(hits+misses)
system.cpu_cluster.cpus.dcache.WriteReq_avg_miss_latency::.cpu_cluster.cpus.data 63709.657996                       # average WriteReq miss latency
system.cpu_cluster.cpus.dcache.WriteReq_avg_miss_latency::total 63709.657996                       # average WriteReq miss latency
system.cpu_cluster.cpus.dcache.WriteReq_avg_mshr_miss_latency::.cpu_cluster.cpus.data 67570.926966                       # average WriteReq mshr miss latency
system.cpu_cluster.cpus.dcache.WriteReq_avg_mshr_miss_latency::total 67570.926966                       # average WriteReq mshr miss latency
system.cpu_cluster.cpus.dcache.WriteReq_hits::.cpu_cluster.cpus.data       582084                       # number of WriteReq hits
system.cpu_cluster.cpus.dcache.WriteReq_hits::total       582084                       # number of WriteReq hits
system.cpu_cluster.cpus.dcache.WriteReq_miss_latency::.cpu_cluster.cpus.data    132261250                       # number of WriteReq miss cycles
system.cpu_cluster.cpus.dcache.WriteReq_miss_latency::total    132261250                       # number of WriteReq miss cycles
system.cpu_cluster.cpus.dcache.WriteReq_miss_rate::.cpu_cluster.cpus.data     0.003554                       # miss rate for WriteReq accesses
system.cpu_cluster.cpus.dcache.WriteReq_miss_rate::total     0.003554                       # miss rate for WriteReq accesses
system.cpu_cluster.cpus.dcache.WriteReq_misses::.cpu_cluster.cpus.data         2076                       # number of WriteReq misses
system.cpu_cluster.cpus.dcache.WriteReq_misses::total         2076                       # number of WriteReq misses
system.cpu_cluster.cpus.dcache.WriteReq_mshr_hits::.cpu_cluster.cpus.data         1008                       # number of WriteReq MSHR hits
system.cpu_cluster.cpus.dcache.WriteReq_mshr_hits::total         1008                       # number of WriteReq MSHR hits
system.cpu_cluster.cpus.dcache.WriteReq_mshr_miss_latency::.cpu_cluster.cpus.data     72165750                       # number of WriteReq MSHR miss cycles
system.cpu_cluster.cpus.dcache.WriteReq_mshr_miss_latency::total     72165750                       # number of WriteReq MSHR miss cycles
system.cpu_cluster.cpus.dcache.WriteReq_mshr_miss_rate::.cpu_cluster.cpus.data     0.001828                       # mshr miss rate for WriteReq accesses
system.cpu_cluster.cpus.dcache.WriteReq_mshr_miss_rate::total     0.001828                       # mshr miss rate for WriteReq accesses
system.cpu_cluster.cpus.dcache.WriteReq_mshr_misses::.cpu_cluster.cpus.data         1068                       # number of WriteReq MSHR misses
system.cpu_cluster.cpus.dcache.WriteReq_mshr_misses::total         1068                       # number of WriteReq MSHR misses
system.cpu_cluster.cpus.dcache.avg_blocked_cycles::no_mshrs          nan                       # average number of cycles each access was blocked
system.cpu_cluster.cpus.dcache.avg_blocked_cycles::no_targets          nan                       # average number of cycles each access was blocked
system.cpu_cluster.cpus.dcache.blocked::no_mshrs            0                       # number of cycles access was blocked
system.cpu_cluster.cpus.dcache.blocked::no_targets            0                       # number of cycles access was blocked
system.cpu_cluster.cpus.dcache.blocked_cycles::no_mshrs            0                       # number of cycles access was blocked
system.cpu_cluster.cpus.dcache.blocked_cycles::no_targets            0                       # number of cycles access was blocked
system.cpu_cluster.cpus.dcache.demand_accesses::.cpu_cluster.cpus.data      1776587                       # number of demand (read+write) accesses
system.cpu_cluster.cpus.dcache.demand_accesses::total      1776587                       # number of demand (read+write) accesses
system.cpu_cluster.cpus.dcache.demand_avg_miss_latency::.cpu_cluster.cpus.data 10837.068041                       # average overall miss latency
system.cpu_cluster.cpus.dcache.demand_avg_miss_latency::total 10837.068041                       # average overall miss latency
system.cpu_cluster.cpus.dcache.demand_avg_mshr_miss_latency::.cpu_cluster.cpus.data  7938.788694                       # average overall mshr miss latency
system.cpu_cluster.cpus.dcache.demand_avg_mshr_miss_latency::total  7938.788694                       # average overall mshr miss latency
system.cpu_cluster.cpus.dcache.demand_hits::.cpu_cluster.cpus.data      1756996                       # number of demand (read+write) hits
system.cpu_cluster.cpus.dcache.demand_hits::total      1756996                       # number of demand (read+write) hits
system.cpu_cluster.cpus.dcache.demand_miss_latency::.cpu_cluster.cpus.data    212309000                       # number of demand (read+write) miss cycles
system.cpu_cluster.cpus.dcache.demand_miss_latency::total    212309000                       # number of demand (read+write) miss cycles
system.cpu_cluster.cpus.dcache.demand_miss_rate::.cpu_cluster.cpus.data     0.011027                       # miss rate for demand accesses
system.cpu_cluster.cpus.dcache.demand_miss_rate::total     0.011027                       # miss rate for demand accesses
system.cpu_cluster.cpus.dcache.demand_misses::.cpu_cluster.cpus.data        19591                       # number of demand (read+write) misses
system.cpu_cluster.cpus.dcache.demand_misses::total        19591                       # number of demand (read+write) misses
system.cpu_cluster.cpus.dcache.demand_mshr_hits::.cpu_cluster.cpus.data         1016                       # number of demand (read+write) MSHR hits
system.cpu_cluster.cpus.dcache.demand_mshr_hits::total         1016                       # number of demand (read+write) MSHR hits
system.cpu_cluster.cpus.dcache.demand_mshr_miss_latency::.cpu_cluster.cpus.data    147463000                       # number of demand (read+write) MSHR miss cycles
system.cpu_cluster.cpus.dcache.demand_mshr_miss_latency::total    147463000                       # number of demand (read+write) MSHR miss cycles
system.cpu_cluster.cpus.dcache.demand_mshr_miss_rate::.cpu_cluster.cpus.data     0.010455                       # mshr miss rate for demand accesses
system.cpu_cluster.cpus.dcache.demand_mshr_miss_rate::total     0.010455                       # mshr miss rate for demand accesses
system.cpu_cluster.cpus.dcache.demand_mshr_misses::.cpu_cluster.cpus.data        18575                       # number of demand (read+write) MSHR misses
system.cpu_cluster.cpus.dcache.demand_mshr_misses::total        18575                       # number of demand (read+write) MSHR misses
system.cpu_cluster.cpus.dcache.overall_accesses::.cpu_cluster.cpus.data      1776621                       # number of overall (read+write) accesses
system.cpu_cluster.cpus.dcache.overall_accesses::total      1776621                       # number of overall (read+write) accesses
system.cpu_cluster.cpus.dcache.overall_avg_miss_latency::.cpu_cluster.cpus.data 10829.329253                       # average overall miss latency
system.cpu_cluster.cpus.dcache.overall_avg_miss_latency::total 10829.329253                       # average overall miss latency
system.cpu_cluster.cpus.dcache.overall_avg_mshr_miss_latency::.cpu_cluster.cpus.data  7968.588571                       # average overall mshr miss latency
system.cpu_cluster.cpus.dcache.overall_avg_mshr_miss_latency::.cpu_cluster.cpus.dcache.prefetcher 46319.680938                       # average overall mshr miss latency
system.cpu_cluster.cpus.dcache.overall_avg_mshr_miss_latency::total  9891.533708                       # average overall mshr miss latency
system.cpu_cluster.cpus.dcache.overall_hits::.cpu_cluster.cpus.data      1757016                       # number of overall hits
system.cpu_cluster.cpus.dcache.overall_hits::total      1757016                       # number of overall hits
system.cpu_cluster.cpus.dcache.overall_miss_latency::.cpu_cluster.cpus.data    212309000                       # number of overall miss cycles
system.cpu_cluster.cpus.dcache.overall_miss_latency::total    212309000                       # number of overall miss cycles
system.cpu_cluster.cpus.dcache.overall_miss_rate::.cpu_cluster.cpus.data     0.011035                       # miss rate for overall accesses
system.cpu_cluster.cpus.dcache.overall_miss_rate::total     0.011035                       # miss rate for overall accesses
system.cpu_cluster.cpus.dcache.overall_misses::.cpu_cluster.cpus.data        19605                       # number of overall misses
system.cpu_cluster.cpus.dcache.overall_misses::total        19605                       # number of overall misses
system.cpu_cluster.cpus.dcache.overall_mshr_hits::.cpu_cluster.cpus.data         1016                       # number of overall MSHR hits
system.cpu_cluster.cpus.dcache.overall_mshr_hits::total         1016                       # number of overall MSHR hits
system.cpu_cluster.cpus.dcache.overall_mshr_miss_latency::.cpu_cluster.cpus.data    148088250                       # number of overall MSHR miss cycles
system.cpu_cluster.cpus.dcache.overall_mshr_miss_latency::.cpu_cluster.cpus.dcache.prefetcher     45439607                       # number of overall MSHR miss cycles
system.cpu_cluster.cpus.dcache.overall_mshr_miss_latency::total    193527857                       # number of overall MSHR miss cycles
system.cpu_cluster.cpus.dcache.overall_mshr_miss_rate::.cpu_cluster.cpus.data     0.010460                       # mshr miss rate for overall accesses
system.cpu_cluster.cpus.dcache.overall_mshr_miss_rate::.cpu_cluster.cpus.dcache.prefetcher          inf                       # mshr miss rate for overall accesses
system.cpu_cluster.cpus.dcache.overall_mshr_miss_rate::total     0.011012                       # mshr miss rate for overall accesses
system.cpu_cluster.cpus.dcache.overall_mshr_misses::.cpu_cluster.cpus.data        18584                       # number of overall MSHR misses
system.cpu_cluster.cpus.dcache.overall_mshr_misses::.cpu_cluster.cpus.dcache.prefetcher          981                       # number of overall MSHR misses
system.cpu_cluster.cpus.dcache.overall_mshr_misses::total        19565                       # number of overall MSHR misses
system.cpu_cluster.cpus.dcache.prefetcher.num_hwpf_issued         1192                       # number of hwpf issued
system.cpu_cluster.cpus.dcache.prefetcher.pfBufferHit          261                       # number of redundant prefetches already in prefetch queue
system.cpu_cluster.cpus.dcache.prefetcher.pfIdentified         1453                       # number of prefetch candidates identified
system.cpu_cluster.cpus.dcache.prefetcher.pfInCache            0                       # number of redundant prefetches already in cache/mshr dropped
system.cpu_cluster.cpus.dcache.prefetcher.pfRemovedFull            0                       # number of prefetches dropped due to prefetch queue size
system.cpu_cluster.cpus.dcache.prefetcher.pfSpanPage           31                       # number of prefetches not generated due to page crossing
system.cpu_cluster.cpus.dcache.prefetcher.pwrStateResidencyTicks::UNDEFINED   1277009750                       # Cumulative time (in ticks) in various power states
system.cpu_cluster.cpus.dcache.pwrStateResidencyTicks::UNDEFINED   1277009750                       # Cumulative time (in ticks) in various power states
system.cpu_cluster.cpus.dcache.replacements        19310                       # number of replacements
system.cpu_cluster.cpus.dcache.tags.age_task_id_blocks_1022::0            4                       # Occupied blocks per task id
system.cpu_cluster.cpus.dcache.tags.age_task_id_blocks_1024::0          220                       # Occupied blocks per task id
system.cpu_cluster.cpus.dcache.tags.age_task_id_blocks_1024::1           29                       # Occupied blocks per task id
system.cpu_cluster.cpus.dcache.tags.age_task_id_blocks_1024::3            3                       # Occupied blocks per task id
system.cpu_cluster.cpus.dcache.tags.avg_refs    90.801237                       # Average number of references to valid blocks.
system.cpu_cluster.cpus.dcache.tags.data_accesses     14232822                       # Number of data accesses
system.cpu_cluster.cpus.dcache.tags.occ_blocks::.cpu_cluster.cpus.data   224.374071                       # Average occupied blocks per requestor
system.cpu_cluster.cpus.dcache.tags.occ_blocks::.cpu_cluster.cpus.dcache.prefetcher    25.704144                       # Average occupied blocks per requestor
system.cpu_cluster.cpus.dcache.tags.occ_percent::.cpu_cluster.cpus.data     0.876461                       # Average percentage of cache occupancy
system.cpu_cluster.cpus.dcache.tags.occ_percent::.cpu_cluster.cpus.dcache.prefetcher     0.100407                       # Average percentage of cache occupancy
system.cpu_cluster.cpus.dcache.tags.occ_percent::total     0.976868                       # Average percentage of cache occupancy
system.cpu_cluster.cpus.dcache.tags.occ_task_id_blocks::1022            4                       # Occupied blocks per task id
system.cpu_cluster.cpus.dcache.tags.occ_task_id_blocks::1024          252                       # Occupied blocks per task id
system.cpu_cluster.cpus.dcache.tags.occ_task_id_percent::1022     0.015625                       # Percentage of cache occupancy per task id
system.cpu_cluster.cpus.dcache.tags.occ_task_id_percent::1024     0.984375                       # Percentage of cache occupancy per task id
system.cpu_cluster.cpus.dcache.tags.pwrStateResidencyTicks::UNDEFINED   1277009750                       # Cumulative time (in ticks) in various power states
system.cpu_cluster.cpus.dcache.tags.sampled_refs        19566                       # Sample count of references to valid blocks.
system.cpu_cluster.cpus.dcache.tags.tag_accesses     14232822                       # Number of tag accesses
system.cpu_cluster.cpus.dcache.tags.tagsinuse   250.078215                       # Cycle average of tags in use
system.cpu_cluster.cpus.dcache.tags.total_refs      1776617                       # Total number of references to valid blocks.
system.cpu_cluster.cpus.dcache.tags.warmup_cycle       152500                       # Cycle when the warmup percentage was hit.
system.cpu_cluster.cpus.dcache.unused_prefetches          242                       # number of HardPF blocks evicted w/o reference
system.cpu_cluster.cpus.dcache.writebacks::.writebacks        19217                       # number of writebacks
system.cpu_cluster.cpus.dcache.writebacks::total        19217                       # number of writebacks
system.cpu_cluster.cpus.discardedOps           114570                       # Number of ops (including micro ops) which were discarded before commit
system.cpu_cluster.cpus.dstage2_mmu.stage2_tlb.accesses            0                       # DTB accesses
system.cpu_cluster.cpus.dstage2_mmu.stage2_tlb.align_faults            0                       # Number of TLB faults due to alignment restrictions
system.cpu_cluster.cpus.dstage2_mmu.stage2_tlb.domain_faults            0                       # Number of TLB faults due to domain restrictions
system.cpu_cluster.cpus.dstage2_mmu.stage2_tlb.flush_entries            0                       # Number of entries that have been flushed from TLB
system.cpu_cluster.cpus.dstage2_mmu.stage2_tlb.flush_tlb            0                       # Number of times complete TLB was flushed
system.cpu_cluster.cpus.dstage2_mmu.stage2_tlb.flush_tlb_asid            0                       # Number of times TLB was flushed by ASID
system.cpu_cluster.cpus.dstage2_mmu.stage2_tlb.flush_tlb_mva            0                       # Number of times TLB was flushed by MVA
system.cpu_cluster.cpus.dstage2_mmu.stage2_tlb.flush_tlb_mva_asid            0                       # Number of times TLB was flushed by MVA & ASID
system.cpu_cluster.cpus.dstage2_mmu.stage2_tlb.hits            0                       # DTB hits
system.cpu_cluster.cpus.dstage2_mmu.stage2_tlb.inst_accesses            0                       # ITB inst accesses
system.cpu_cluster.cpus.dstage2_mmu.stage2_tlb.inst_hits            0                       # ITB inst hits
system.cpu_cluster.cpus.dstage2_mmu.stage2_tlb.inst_misses            0                       # ITB inst misses
system.cpu_cluster.cpus.dstage2_mmu.stage2_tlb.misses            0                       # DTB misses
system.cpu_cluster.cpus.dstage2_mmu.stage2_tlb.perms_faults            0                       # Number of TLB faults due to permissions restrictions
system.cpu_cluster.cpus.dstage2_mmu.stage2_tlb.prefetch_faults            0                       # Number of TLB faults due to prefetch
system.cpu_cluster.cpus.dstage2_mmu.stage2_tlb.read_accesses            0                       # DTB read accesses
system.cpu_cluster.cpus.dstage2_mmu.stage2_tlb.read_hits            0                       # DTB read hits
system.cpu_cluster.cpus.dstage2_mmu.stage2_tlb.read_misses            0                       # DTB read misses
system.cpu_cluster.cpus.dstage2_mmu.stage2_tlb.walker.pwrStateResidencyTicks::UNDEFINED   1277009750                       # Cumulative time (in ticks) in various power states
system.cpu_cluster.cpus.dstage2_mmu.stage2_tlb.walker.walkRequestOrigin_Requested::Data            0                       # Table walker requests started/completed, data/inst
system.cpu_cluster.cpus.dstage2_mmu.stage2_tlb.walker.walkRequestOrigin_Requested::Inst            0                       # Table walker requests started/completed, data/inst
system.cpu_cluster.cpus.dstage2_mmu.stage2_tlb.walker.walkRequestOrigin_Requested::total            0                       # Table walker requests started/completed, data/inst
system.cpu_cluster.cpus.dstage2_mmu.stage2_tlb.walker.walkRequestOrigin_Completed::Data            0                       # Table walker requests started/completed, data/inst
system.cpu_cluster.cpus.dstage2_mmu.stage2_tlb.walker.walkRequestOrigin_Completed::Inst            0                       # Table walker requests started/completed, data/inst
system.cpu_cluster.cpus.dstage2_mmu.stage2_tlb.walker.walkRequestOrigin_Completed::total            0                       # Table walker requests started/completed, data/inst
system.cpu_cluster.cpus.dstage2_mmu.stage2_tlb.walker.walkRequestOrigin::total            0                       # Table walker requests started/completed, data/inst
system.cpu_cluster.cpus.dstage2_mmu.stage2_tlb.walker.walks            0                       # Table walker walks requested
system.cpu_cluster.cpus.dstage2_mmu.stage2_tlb.write_accesses            0                       # DTB write accesses
system.cpu_cluster.cpus.dstage2_mmu.stage2_tlb.write_hits            0                       # DTB write hits
system.cpu_cluster.cpus.dstage2_mmu.stage2_tlb.write_misses            0                       # DTB write misses
system.cpu_cluster.cpus.dtb.accesses                0                       # DTB accesses
system.cpu_cluster.cpus.dtb.align_faults            0                       # Number of TLB faults due to alignment restrictions
system.cpu_cluster.cpus.dtb.domain_faults            0                       # Number of TLB faults due to domain restrictions
system.cpu_cluster.cpus.dtb.flush_entries            0                       # Number of entries that have been flushed from TLB
system.cpu_cluster.cpus.dtb.flush_tlb               0                       # Number of times complete TLB was flushed
system.cpu_cluster.cpus.dtb.flush_tlb_asid            0                       # Number of times TLB was flushed by ASID
system.cpu_cluster.cpus.dtb.flush_tlb_mva            0                       # Number of times TLB was flushed by MVA
system.cpu_cluster.cpus.dtb.flush_tlb_mva_asid            0                       # Number of times TLB was flushed by MVA & ASID
system.cpu_cluster.cpus.dtb.hits                    0                       # DTB hits
system.cpu_cluster.cpus.dtb.inst_accesses            0                       # ITB inst accesses
system.cpu_cluster.cpus.dtb.inst_hits               0                       # ITB inst hits
system.cpu_cluster.cpus.dtb.inst_misses             0                       # ITB inst misses
system.cpu_cluster.cpus.dtb.misses                  0                       # DTB misses
system.cpu_cluster.cpus.dtb.perms_faults            0                       # Number of TLB faults due to permissions restrictions
system.cpu_cluster.cpus.dtb.prefetch_faults            0                       # Number of TLB faults due to prefetch
system.cpu_cluster.cpus.dtb.read_accesses            0                       # DTB read accesses
system.cpu_cluster.cpus.dtb.read_hits               0                       # DTB read hits
system.cpu_cluster.cpus.dtb.read_misses             0                       # DTB read misses
system.cpu_cluster.cpus.dtb.walker.pwrStateResidencyTicks::UNDEFINED   1277009750                       # Cumulative time (in ticks) in various power states
system.cpu_cluster.cpus.dtb.walker.walkRequestOrigin_Requested::Data            0                       # Table walker requests started/completed, data/inst
system.cpu_cluster.cpus.dtb.walker.walkRequestOrigin_Requested::Inst            0                       # Table walker requests started/completed, data/inst
system.cpu_cluster.cpus.dtb.walker.walkRequestOrigin_Requested::total            0                       # Table walker requests started/completed, data/inst
system.cpu_cluster.cpus.dtb.walker.walkRequestOrigin_Completed::Data            0                       # Table walker requests started/completed, data/inst
system.cpu_cluster.cpus.dtb.walker.walkRequestOrigin_Completed::Inst            0                       # Table walker requests started/completed, data/inst
system.cpu_cluster.cpus.dtb.walker.walkRequestOrigin_Completed::total            0                       # Table walker requests started/completed, data/inst
system.cpu_cluster.cpus.dtb.walker.walkRequestOrigin::total            0                       # Table walker requests started/completed, data/inst
system.cpu_cluster.cpus.dtb.walker.walks            0                       # Table walker walks requested
system.cpu_cluster.cpus.dtb.write_accesses            0                       # DTB write accesses
system.cpu_cluster.cpus.dtb.write_hits              0                       # DTB write hits
system.cpu_cluster.cpus.dtb.write_misses            0                       # DTB write misses
system.cpu_cluster.cpus.dtb_walker_cache.avg_blocked_cycles::no_mshrs          nan                       # average number of cycles each access was blocked
system.cpu_cluster.cpus.dtb_walker_cache.avg_blocked_cycles::no_targets          nan                       # average number of cycles each access was blocked
system.cpu_cluster.cpus.dtb_walker_cache.blocked::no_mshrs            0                       # number of cycles access was blocked
system.cpu_cluster.cpus.dtb_walker_cache.blocked::no_targets            0                       # number of cycles access was blocked
system.cpu_cluster.cpus.dtb_walker_cache.blocked_cycles::no_mshrs            0                       # number of cycles access was blocked
system.cpu_cluster.cpus.dtb_walker_cache.blocked_cycles::no_targets            0                       # number of cycles access was blocked
system.cpu_cluster.cpus.dtb_walker_cache.pwrStateResidencyTicks::UNDEFINED   1277009750                       # Cumulative time (in ticks) in various power states
system.cpu_cluster.cpus.dtb_walker_cache.replacements            0                       # number of replacements
system.cpu_cluster.cpus.dtb_walker_cache.tags.avg_refs          nan                       # Average number of references to valid blocks.
system.cpu_cluster.cpus.dtb_walker_cache.tags.data_accesses            0                       # Number of data accesses
system.cpu_cluster.cpus.dtb_walker_cache.tags.pwrStateResidencyTicks::UNDEFINED   1277009750                       # Cumulative time (in ticks) in various power states
system.cpu_cluster.cpus.dtb_walker_cache.tags.sampled_refs            0                       # Sample count of references to valid blocks.
system.cpu_cluster.cpus.dtb_walker_cache.tags.tag_accesses            0                       # Number of tag accesses
system.cpu_cluster.cpus.dtb_walker_cache.tags.tagsinuse            0                       # Cycle average of tags in use
system.cpu_cluster.cpus.dtb_walker_cache.tags.total_refs            0                       # Total number of references to valid blocks.
system.cpu_cluster.cpus.dtb_walker_cache.tags.warmup_cycle            0                       # Cycle when the warmup percentage was hit.
system.cpu_cluster.cpus.fetch2.amo_instructions            0                       # Number of memory atomic instructions successfully decoded
system.cpu_cluster.cpus.fetch2.fp_instructions            0                       # Number of floating point instructions successfully decoded
system.cpu_cluster.cpus.fetch2.int_instructions      1906647                       # Number of integer instructions successfully decoded
system.cpu_cluster.cpus.fetch2.load_instructions      1462504                       # Number of memory load instructions successfully decoded
system.cpu_cluster.cpus.fetch2.store_instructions       408741                       # Number of memory store instructions successfully decoded
system.cpu_cluster.cpus.fetch2.vec_instructions            0                       # Number of SIMD instructions successfully decoded
system.cpu_cluster.cpus.icache.ReadReq_accesses::.cpu_cluster.cpus.inst      1611086                       # number of ReadReq accesses(hits+misses)
system.cpu_cluster.cpus.icache.ReadReq_accesses::total      1611086                       # number of ReadReq accesses(hits+misses)
system.cpu_cluster.cpus.icache.ReadReq_avg_miss_latency::.cpu_cluster.cpus.inst 69661.627907                       # average ReadReq miss latency
system.cpu_cluster.cpus.icache.ReadReq_avg_miss_latency::total 69661.627907                       # average ReadReq miss latency
system.cpu_cluster.cpus.icache.ReadReq_avg_mshr_miss_latency::.cpu_cluster.cpus.inst 69412.209302                       # average ReadReq mshr miss latency
system.cpu_cluster.cpus.icache.ReadReq_avg_mshr_miss_latency::total 69412.209302                       # average ReadReq mshr miss latency
system.cpu_cluster.cpus.icache.ReadReq_hits::.cpu_cluster.cpus.inst      1610656                       # number of ReadReq hits
system.cpu_cluster.cpus.icache.ReadReq_hits::total      1610656                       # number of ReadReq hits
system.cpu_cluster.cpus.icache.ReadReq_miss_latency::.cpu_cluster.cpus.inst     29954500                       # number of ReadReq miss cycles
system.cpu_cluster.cpus.icache.ReadReq_miss_latency::total     29954500                       # number of ReadReq miss cycles
system.cpu_cluster.cpus.icache.ReadReq_miss_rate::.cpu_cluster.cpus.inst     0.000267                       # miss rate for ReadReq accesses
system.cpu_cluster.cpus.icache.ReadReq_miss_rate::total     0.000267                       # miss rate for ReadReq accesses
system.cpu_cluster.cpus.icache.ReadReq_misses::.cpu_cluster.cpus.inst          430                       # number of ReadReq misses
system.cpu_cluster.cpus.icache.ReadReq_misses::total          430                       # number of ReadReq misses
system.cpu_cluster.cpus.icache.ReadReq_mshr_miss_latency::.cpu_cluster.cpus.inst     29847250                       # number of ReadReq MSHR miss cycles
system.cpu_cluster.cpus.icache.ReadReq_mshr_miss_latency::total     29847250                       # number of ReadReq MSHR miss cycles
system.cpu_cluster.cpus.icache.ReadReq_mshr_miss_rate::.cpu_cluster.cpus.inst     0.000267                       # mshr miss rate for ReadReq accesses
system.cpu_cluster.cpus.icache.ReadReq_mshr_miss_rate::total     0.000267                       # mshr miss rate for ReadReq accesses
system.cpu_cluster.cpus.icache.ReadReq_mshr_misses::.cpu_cluster.cpus.inst          430                       # number of ReadReq MSHR misses
system.cpu_cluster.cpus.icache.ReadReq_mshr_misses::total          430                       # number of ReadReq MSHR misses
system.cpu_cluster.cpus.icache.avg_blocked_cycles::no_mshrs          nan                       # average number of cycles each access was blocked
system.cpu_cluster.cpus.icache.avg_blocked_cycles::no_targets          nan                       # average number of cycles each access was blocked
system.cpu_cluster.cpus.icache.blocked::no_mshrs            0                       # number of cycles access was blocked
system.cpu_cluster.cpus.icache.blocked::no_targets            0                       # number of cycles access was blocked
system.cpu_cluster.cpus.icache.blocked_cycles::no_mshrs            0                       # number of cycles access was blocked
system.cpu_cluster.cpus.icache.blocked_cycles::no_targets            0                       # number of cycles access was blocked
system.cpu_cluster.cpus.icache.demand_accesses::.cpu_cluster.cpus.inst      1611086                       # number of demand (read+write) accesses
system.cpu_cluster.cpus.icache.demand_accesses::total      1611086                       # number of demand (read+write) accesses
system.cpu_cluster.cpus.icache.demand_avg_miss_latency::.cpu_cluster.cpus.inst 69661.627907                       # average overall miss latency
system.cpu_cluster.cpus.icache.demand_avg_miss_latency::total 69661.627907                       # average overall miss latency
system.cpu_cluster.cpus.icache.demand_avg_mshr_miss_latency::.cpu_cluster.cpus.inst 69412.209302                       # average overall mshr miss latency
system.cpu_cluster.cpus.icache.demand_avg_mshr_miss_latency::total 69412.209302                       # average overall mshr miss latency
system.cpu_cluster.cpus.icache.demand_hits::.cpu_cluster.cpus.inst      1610656                       # number of demand (read+write) hits
system.cpu_cluster.cpus.icache.demand_hits::total      1610656                       # number of demand (read+write) hits
system.cpu_cluster.cpus.icache.demand_miss_latency::.cpu_cluster.cpus.inst     29954500                       # number of demand (read+write) miss cycles
system.cpu_cluster.cpus.icache.demand_miss_latency::total     29954500                       # number of demand (read+write) miss cycles
system.cpu_cluster.cpus.icache.demand_miss_rate::.cpu_cluster.cpus.inst     0.000267                       # miss rate for demand accesses
system.cpu_cluster.cpus.icache.demand_miss_rate::total     0.000267                       # miss rate for demand accesses
system.cpu_cluster.cpus.icache.demand_misses::.cpu_cluster.cpus.inst          430                       # number of demand (read+write) misses
system.cpu_cluster.cpus.icache.demand_misses::total          430                       # number of demand (read+write) misses
system.cpu_cluster.cpus.icache.demand_mshr_miss_latency::.cpu_cluster.cpus.inst     29847250                       # number of demand (read+write) MSHR miss cycles
system.cpu_cluster.cpus.icache.demand_mshr_miss_latency::total     29847250                       # number of demand (read+write) MSHR miss cycles
system.cpu_cluster.cpus.icache.demand_mshr_miss_rate::.cpu_cluster.cpus.inst     0.000267                       # mshr miss rate for demand accesses
system.cpu_cluster.cpus.icache.demand_mshr_miss_rate::total     0.000267                       # mshr miss rate for demand accesses
system.cpu_cluster.cpus.icache.demand_mshr_misses::.cpu_cluster.cpus.inst          430                       # number of demand (read+write) MSHR misses
system.cpu_cluster.cpus.icache.demand_mshr_misses::total          430                       # number of demand (read+write) MSHR misses
system.cpu_cluster.cpus.icache.overall_accesses::.cpu_cluster.cpus.inst      1611086                       # number of overall (read+write) accesses
system.cpu_cluster.cpus.icache.overall_accesses::total      1611086                       # number of overall (read+write) accesses
system.cpu_cluster.cpus.icache.overall_avg_miss_latency::.cpu_cluster.cpus.inst 69661.627907                       # average overall miss latency
system.cpu_cluster.cpus.icache.overall_avg_miss_latency::total 69661.627907                       # average overall miss latency
system.cpu_cluster.cpus.icache.overall_avg_mshr_miss_latency::.cpu_cluster.cpus.inst 69412.209302                       # average overall mshr miss latency
system.cpu_cluster.cpus.icache.overall_avg_mshr_miss_latency::total 69412.209302                       # average overall mshr miss latency
system.cpu_cluster.cpus.icache.overall_hits::.cpu_cluster.cpus.inst      1610656                       # number of overall hits
system.cpu_cluster.cpus.icache.overall_hits::total      1610656                       # number of overall hits
system.cpu_cluster.cpus.icache.overall_miss_latency::.cpu_cluster.cpus.inst     29954500                       # number of overall miss cycles
system.cpu_cluster.cpus.icache.overall_miss_latency::total     29954500                       # number of overall miss cycles
system.cpu_cluster.cpus.icache.overall_miss_rate::.cpu_cluster.cpus.inst     0.000267                       # miss rate for overall accesses
system.cpu_cluster.cpus.icache.overall_miss_rate::total     0.000267                       # miss rate for overall accesses
system.cpu_cluster.cpus.icache.overall_misses::.cpu_cluster.cpus.inst          430                       # number of overall misses
system.cpu_cluster.cpus.icache.overall_misses::total          430                       # number of overall misses
system.cpu_cluster.cpus.icache.overall_mshr_miss_latency::.cpu_cluster.cpus.inst     29847250                       # number of overall MSHR miss cycles
system.cpu_cluster.cpus.icache.overall_mshr_miss_latency::total     29847250                       # number of overall MSHR miss cycles
system.cpu_cluster.cpus.icache.overall_mshr_miss_rate::.cpu_cluster.cpus.inst     0.000267                       # mshr miss rate for overall accesses
system.cpu_cluster.cpus.icache.overall_mshr_miss_rate::total     0.000267                       # mshr miss rate for overall accesses
system.cpu_cluster.cpus.icache.overall_mshr_misses::.cpu_cluster.cpus.inst          430                       # number of overall MSHR misses
system.cpu_cluster.cpus.icache.overall_mshr_misses::total          430                       # number of overall MSHR misses
system.cpu_cluster.cpus.icache.pwrStateResidencyTicks::UNDEFINED   1277009750                       # Cumulative time (in ticks) in various power states
system.cpu_cluster.cpus.icache.replacements          173                       # number of replacements
system.cpu_cluster.cpus.icache.tags.age_task_id_blocks_1024::0           44                       # Occupied blocks per task id
system.cpu_cluster.cpus.icache.tags.age_task_id_blocks_1024::1          103                       # Occupied blocks per task id
system.cpu_cluster.cpus.icache.tags.age_task_id_blocks_1024::3          109                       # Occupied blocks per task id
system.cpu_cluster.cpus.icache.tags.avg_refs  3755.442890                       # Average number of references to valid blocks.
system.cpu_cluster.cpus.icache.tags.data_accesses     12889117                       # Number of data accesses
system.cpu_cluster.cpus.icache.tags.occ_blocks::.cpu_cluster.cpus.inst   241.862528                       # Average occupied blocks per requestor
system.cpu_cluster.cpus.icache.tags.occ_percent::.cpu_cluster.cpus.inst     0.944776                       # Average percentage of cache occupancy
system.cpu_cluster.cpus.icache.tags.occ_percent::total     0.944776                       # Average percentage of cache occupancy
system.cpu_cluster.cpus.icache.tags.occ_task_id_blocks::1024          256                       # Occupied blocks per task id
system.cpu_cluster.cpus.icache.tags.occ_task_id_percent::1024            1                       # Percentage of cache occupancy per task id
system.cpu_cluster.cpus.icache.tags.pwrStateResidencyTicks::UNDEFINED   1277009750                       # Cumulative time (in ticks) in various power states
system.cpu_cluster.cpus.icache.tags.sampled_refs          429                       # Sample count of references to valid blocks.
system.cpu_cluster.cpus.icache.tags.tag_accesses     12889117                       # Number of tag accesses
system.cpu_cluster.cpus.icache.tags.tagsinuse   241.862528                       # Cycle average of tags in use
system.cpu_cluster.cpus.icache.tags.total_refs      1611085                       # Total number of references to valid blocks.
system.cpu_cluster.cpus.icache.tags.warmup_cycle        78500                       # Cycle when the warmup percentage was hit.
system.cpu_cluster.cpus.idleCycles             525140                       # Total number of cycles that the object has spent stopped
system.cpu_cluster.cpus.ipc                  0.741197                       # IPC: instructions per cycle
system.cpu_cluster.cpus.istage2_mmu.stage2_tlb.accesses            0                       # DTB accesses
system.cpu_cluster.cpus.istage2_mmu.stage2_tlb.align_faults            0                       # Number of TLB faults due to alignment restrictions
system.cpu_cluster.cpus.istage2_mmu.stage2_tlb.domain_faults            0                       # Number of TLB faults due to domain restrictions
system.cpu_cluster.cpus.istage2_mmu.stage2_tlb.flush_entries            0                       # Number of entries that have been flushed from TLB
system.cpu_cluster.cpus.istage2_mmu.stage2_tlb.flush_tlb            0                       # Number of times complete TLB was flushed
system.cpu_cluster.cpus.istage2_mmu.stage2_tlb.flush_tlb_asid            0                       # Number of times TLB was flushed by ASID
system.cpu_cluster.cpus.istage2_mmu.stage2_tlb.flush_tlb_mva            0                       # Number of times TLB was flushed by MVA
system.cpu_cluster.cpus.istage2_mmu.stage2_tlb.flush_tlb_mva_asid            0                       # Number of times TLB was flushed by MVA & ASID
system.cpu_cluster.cpus.istage2_mmu.stage2_tlb.hits            0                       # DTB hits
system.cpu_cluster.cpus.istage2_mmu.stage2_tlb.inst_accesses            0                       # ITB inst accesses
system.cpu_cluster.cpus.istage2_mmu.stage2_tlb.inst_hits            0                       # ITB inst hits
system.cpu_cluster.cpus.istage2_mmu.stage2_tlb.inst_misses            0                       # ITB inst misses
system.cpu_cluster.cpus.istage2_mmu.stage2_tlb.misses            0                       # DTB misses
system.cpu_cluster.cpus.istage2_mmu.stage2_tlb.perms_faults            0                       # Number of TLB faults due to permissions restrictions
system.cpu_cluster.cpus.istage2_mmu.stage2_tlb.prefetch_faults            0                       # Number of TLB faults due to prefetch
system.cpu_cluster.cpus.istage2_mmu.stage2_tlb.read_accesses            0                       # DTB read accesses
system.cpu_cluster.cpus.istage2_mmu.stage2_tlb.read_hits            0                       # DTB read hits
system.cpu_cluster.cpus.istage2_mmu.stage2_tlb.read_misses            0                       # DTB read misses
system.cpu_cluster.cpus.istage2_mmu.stage2_tlb.walker.pwrStateResidencyTicks::UNDEFINED   1277009750                       # Cumulative time (in ticks) in various power states
system.cpu_cluster.cpus.istage2_mmu.stage2_tlb.walker.walkRequestOrigin_Requested::Data            0                       # Table walker requests started/completed, data/inst
system.cpu_cluster.cpus.istage2_mmu.stage2_tlb.walker.walkRequestOrigin_Requested::Inst            0                       # Table walker requests started/completed, data/inst
system.cpu_cluster.cpus.istage2_mmu.stage2_tlb.walker.walkRequestOrigin_Requested::total            0                       # Table walker requests started/completed, data/inst
system.cpu_cluster.cpus.istage2_mmu.stage2_tlb.walker.walkRequestOrigin_Completed::Data            0                       # Table walker requests started/completed, data/inst
system.cpu_cluster.cpus.istage2_mmu.stage2_tlb.walker.walkRequestOrigin_Completed::Inst            0                       # Table walker requests started/completed, data/inst
system.cpu_cluster.cpus.istage2_mmu.stage2_tlb.walker.walkRequestOrigin_Completed::total            0                       # Table walker requests started/completed, data/inst
system.cpu_cluster.cpus.istage2_mmu.stage2_tlb.walker.walkRequestOrigin::total            0                       # Table walker requests started/completed, data/inst
system.cpu_cluster.cpus.istage2_mmu.stage2_tlb.walker.walks            0                       # Table walker walks requested
system.cpu_cluster.cpus.istage2_mmu.stage2_tlb.write_accesses            0                       # DTB write accesses
system.cpu_cluster.cpus.istage2_mmu.stage2_tlb.write_hits            0                       # DTB write hits
system.cpu_cluster.cpus.istage2_mmu.stage2_tlb.write_misses            0                       # DTB write misses
system.cpu_cluster.cpus.itb.accesses                0                       # DTB accesses
system.cpu_cluster.cpus.itb.align_faults            0                       # Number of TLB faults due to alignment restrictions
system.cpu_cluster.cpus.itb.domain_faults            0                       # Number of TLB faults due to domain restrictions
system.cpu_cluster.cpus.itb.flush_entries            0                       # Number of entries that have been flushed from TLB
system.cpu_cluster.cpus.itb.flush_tlb               0                       # Number of times complete TLB was flushed
system.cpu_cluster.cpus.itb.flush_tlb_asid            0                       # Number of times TLB was flushed by ASID
system.cpu_cluster.cpus.itb.flush_tlb_mva            0                       # Number of times TLB was flushed by MVA
system.cpu_cluster.cpus.itb.flush_tlb_mva_asid            0                       # Number of times TLB was flushed by MVA & ASID
system.cpu_cluster.cpus.itb.hits                    0                       # DTB hits
system.cpu_cluster.cpus.itb.inst_accesses            0                       # ITB inst accesses
system.cpu_cluster.cpus.itb.inst_hits               0                       # ITB inst hits
system.cpu_cluster.cpus.itb.inst_misses             0                       # ITB inst misses
system.cpu_cluster.cpus.itb.misses                  0                       # DTB misses
system.cpu_cluster.cpus.itb.perms_faults            0                       # Number of TLB faults due to permissions restrictions
system.cpu_cluster.cpus.itb.prefetch_faults            0                       # Number of TLB faults due to prefetch
system.cpu_cluster.cpus.itb.read_accesses            0                       # DTB read accesses
system.cpu_cluster.cpus.itb.read_hits               0                       # DTB read hits
system.cpu_cluster.cpus.itb.read_misses             0                       # DTB read misses
system.cpu_cluster.cpus.itb.walker.pwrStateResidencyTicks::UNDEFINED   1277009750                       # Cumulative time (in ticks) in various power states
system.cpu_cluster.cpus.itb.walker.walkRequestOrigin_Requested::Data            0                       # Table walker requests started/completed, data/inst
system.cpu_cluster.cpus.itb.walker.walkRequestOrigin_Requested::Inst            0                       # Table walker requests started/completed, data/inst
system.cpu_cluster.cpus.itb.walker.walkRequestOrigin_Requested::total            0                       # Table walker requests started/completed, data/inst
system.cpu_cluster.cpus.itb.walker.walkRequestOrigin_Completed::Data            0                       # Table walker requests started/completed, data/inst
system.cpu_cluster.cpus.itb.walker.walkRequestOrigin_Completed::Inst            0                       # Table walker requests started/completed, data/inst
system.cpu_cluster.cpus.itb.walker.walkRequestOrigin_Completed::total            0                       # Table walker requests started/completed, data/inst
system.cpu_cluster.cpus.itb.walker.walkRequestOrigin::total            0                       # Table walker requests started/completed, data/inst
system.cpu_cluster.cpus.itb.walker.walks            0                       # Table walker walks requested
system.cpu_cluster.cpus.itb.write_accesses            0                       # DTB write accesses
system.cpu_cluster.cpus.itb.write_hits              0                       # DTB write hits
system.cpu_cluster.cpus.itb.write_misses            0                       # DTB write misses
system.cpu_cluster.cpus.itb_walker_cache.avg_blocked_cycles::no_mshrs          nan                       # average number of cycles each access was blocked
system.cpu_cluster.cpus.itb_walker_cache.avg_blocked_cycles::no_targets          nan                       # average number of cycles each access was blocked
system.cpu_cluster.cpus.itb_walker_cache.blocked::no_mshrs            0                       # number of cycles access was blocked
system.cpu_cluster.cpus.itb_walker_cache.blocked::no_targets            0                       # number of cycles access was blocked
system.cpu_cluster.cpus.itb_walker_cache.blocked_cycles::no_mshrs            0                       # number of cycles access was blocked
system.cpu_cluster.cpus.itb_walker_cache.blocked_cycles::no_targets            0                       # number of cycles access was blocked
system.cpu_cluster.cpus.itb_walker_cache.pwrStateResidencyTicks::UNDEFINED   1277009750                       # Cumulative time (in ticks) in various power states
system.cpu_cluster.cpus.itb_walker_cache.replacements            0                       # number of replacements
system.cpu_cluster.cpus.itb_walker_cache.tags.avg_refs          nan                       # Average number of references to valid blocks.
system.cpu_cluster.cpus.itb_walker_cache.tags.data_accesses            0                       # Number of data accesses
system.cpu_cluster.cpus.itb_walker_cache.tags.pwrStateResidencyTicks::UNDEFINED   1277009750                       # Cumulative time (in ticks) in various power states
system.cpu_cluster.cpus.itb_walker_cache.tags.sampled_refs            0                       # Sample count of references to valid blocks.
system.cpu_cluster.cpus.itb_walker_cache.tags.tag_accesses            0                       # Number of tag accesses
system.cpu_cluster.cpus.itb_walker_cache.tags.tagsinuse            0                       # Cycle average of tags in use
system.cpu_cluster.cpus.itb_walker_cache.tags.total_refs            0                       # Total number of references to valid blocks.
system.cpu_cluster.cpus.itb_walker_cache.tags.warmup_cycle            0                       # Cycle when the warmup percentage was hit.
system.cpu_cluster.cpus.numCycles             5108039                       # number of cpu cycles simulated
system.cpu_cluster.cpus.numFetchSuspends            0                       # Number of times Execute suspended instruction fetching
system.cpu_cluster.cpus.numWorkItemsCompleted            0                       # number of work items this cpu completed
system.cpu_cluster.cpus.numWorkItemsStarted            0                       # number of work items this cpu started
system.cpu_cluster.cpus.op_class_0::No_OpClass            0      0.00%      0.00% # Class of committed instruction
system.cpu_cluster.cpus.op_class_0::IntAlu      2434885     57.16%     57.16% # Class of committed instruction
system.cpu_cluster.cpus.op_class_0::IntMult        15055      0.35%     57.51% # Class of committed instruction
system.cpu_cluster.cpus.op_class_0::IntDiv            0      0.00%     57.51% # Class of committed instruction
system.cpu_cluster.cpus.op_class_0::FloatAdd            0      0.00%     57.51% # Class of committed instruction
system.cpu_cluster.cpus.op_class_0::FloatCmp            0      0.00%     57.51% # Class of committed instruction
system.cpu_cluster.cpus.op_class_0::FloatCvt            0      0.00%     57.51% # Class of committed instruction
system.cpu_cluster.cpus.op_class_0::FloatMult            0      0.00%     57.51% # Class of committed instruction
system.cpu_cluster.cpus.op_class_0::FloatMultAcc            0      0.00%     57.51% # Class of committed instruction
system.cpu_cluster.cpus.op_class_0::FloatDiv            0      0.00%     57.51% # Class of committed instruction
system.cpu_cluster.cpus.op_class_0::FloatMisc            0      0.00%     57.51% # Class of committed instruction
system.cpu_cluster.cpus.op_class_0::FloatSqrt            0      0.00%     57.51% # Class of committed instruction
system.cpu_cluster.cpus.op_class_0::SimdAdd            0      0.00%     57.51% # Class of committed instruction
system.cpu_cluster.cpus.op_class_0::SimdAddAcc            0      0.00%     57.51% # Class of committed instruction
system.cpu_cluster.cpus.op_class_0::SimdAlu            0      0.00%     57.51% # Class of committed instruction
system.cpu_cluster.cpus.op_class_0::SimdCmp            0      0.00%     57.51% # Class of committed instruction
system.cpu_cluster.cpus.op_class_0::SimdCvt            0      0.00%     57.51% # Class of committed instruction
system.cpu_cluster.cpus.op_class_0::SimdMisc            0      0.00%     57.51% # Class of committed instruction
system.cpu_cluster.cpus.op_class_0::SimdMult            0      0.00%     57.51% # Class of committed instruction
system.cpu_cluster.cpus.op_class_0::SimdMultAcc            0      0.00%     57.51% # Class of committed instruction
system.cpu_cluster.cpus.op_class_0::SimdShift            0      0.00%     57.51% # Class of committed instruction
system.cpu_cluster.cpus.op_class_0::SimdShiftAcc            0      0.00%     57.51% # Class of committed instruction
system.cpu_cluster.cpus.op_class_0::SimdDiv            0      0.00%     57.51% # Class of committed instruction
system.cpu_cluster.cpus.op_class_0::SimdSqrt            0      0.00%     57.51% # Class of committed instruction
system.cpu_cluster.cpus.op_class_0::SimdFloatAdd            0      0.00%     57.51% # Class of committed instruction
system.cpu_cluster.cpus.op_class_0::SimdFloatAlu            0      0.00%     57.51% # Class of committed instruction
system.cpu_cluster.cpus.op_class_0::SimdFloatCmp            0      0.00%     57.51% # Class of committed instruction
system.cpu_cluster.cpus.op_class_0::SimdFloatCvt            0      0.00%     57.51% # Class of committed instruction
system.cpu_cluster.cpus.op_class_0::SimdFloatDiv            0      0.00%     57.51% # Class of committed instruction
system.cpu_cluster.cpus.op_class_0::SimdFloatMisc            0      0.00%     57.51% # Class of committed instruction
system.cpu_cluster.cpus.op_class_0::SimdFloatMult            0      0.00%     57.51% # Class of committed instruction
system.cpu_cluster.cpus.op_class_0::SimdFloatMultAcc            0      0.00%     57.51% # Class of committed instruction
system.cpu_cluster.cpus.op_class_0::SimdFloatSqrt            0      0.00%     57.51% # Class of committed instruction
system.cpu_cluster.cpus.op_class_0::SimdReduceAdd            0      0.00%     57.51% # Class of committed instruction
system.cpu_cluster.cpus.op_class_0::SimdReduceAlu            0      0.00%     57.51% # Class of committed instruction
system.cpu_cluster.cpus.op_class_0::SimdReduceCmp            0      0.00%     57.51% # Class of committed instruction
system.cpu_cluster.cpus.op_class_0::SimdFloatReduceAdd            0      0.00%     57.51% # Class of committed instruction
system.cpu_cluster.cpus.op_class_0::SimdFloatReduceCmp            0      0.00%     57.51% # Class of committed instruction
system.cpu_cluster.cpus.op_class_0::SimdAes            0      0.00%     57.51% # Class of committed instruction
system.cpu_cluster.cpus.op_class_0::SimdAesMix            0      0.00%     57.51% # Class of committed instruction
system.cpu_cluster.cpus.op_class_0::SimdSha1Hash            0      0.00%     57.51% # Class of committed instruction
system.cpu_cluster.cpus.op_class_0::SimdSha1Hash2            0      0.00%     57.51% # Class of committed instruction
system.cpu_cluster.cpus.op_class_0::SimdSha256Hash            0      0.00%     57.51% # Class of committed instruction
system.cpu_cluster.cpus.op_class_0::SimdSha256Hash2            0      0.00%     57.51% # Class of committed instruction
system.cpu_cluster.cpus.op_class_0::SimdShaSigma2            0      0.00%     57.51% # Class of committed instruction
system.cpu_cluster.cpus.op_class_0::SimdShaSigma3            0      0.00%     57.51% # Class of committed instruction
system.cpu_cluster.cpus.op_class_0::SimdPredAlu            0      0.00%     57.51% # Class of committed instruction
system.cpu_cluster.cpus.op_class_0::MemRead      1225807     28.78%     86.29% # Class of committed instruction
system.cpu_cluster.cpus.op_class_0::MemWrite       584216     13.71%    100.00% # Class of committed instruction
system.cpu_cluster.cpus.op_class_0::FloatMemRead            0      0.00%    100.00% # Class of committed instruction
system.cpu_cluster.cpus.op_class_0::FloatMemWrite            0      0.00%    100.00% # Class of committed instruction
system.cpu_cluster.cpus.op_class_0::IprAccess            0      0.00%    100.00% # Class of committed instruction
system.cpu_cluster.cpus.op_class_0::InstPrefetch            0      0.00%    100.00% # Class of committed instruction
system.cpu_cluster.cpus.op_class_0::total      4259963                       # Class of committed instruction
system.cpu_cluster.cpus.pwrStateResidencyTicks::ON   1277009750                       # Cumulative time (in ticks) in various power states
system.cpu_cluster.cpus.tickCycles            4582899                       # Number of cycles that the object actually ticked
system.cpu_cluster.cpus.workload.numSyscalls           11                       # Number of system calls
system.cpu_cluster.l2.ReadExReq_accesses::.cpu_cluster.cpus.data         1068                       # number of ReadExReq accesses(hits+misses)
system.cpu_cluster.l2.ReadExReq_accesses::total         1068                       # number of ReadExReq accesses(hits+misses)
system.cpu_cluster.l2.ReadExReq_avg_miss_latency::.cpu_cluster.cpus.data 70455.621302                       # average ReadExReq miss latency
system.cpu_cluster.l2.ReadExReq_avg_miss_latency::total 70455.621302                       # average ReadExReq miss latency
system.cpu_cluster.l2.ReadExReq_avg_mshr_miss_latency::.cpu_cluster.cpus.data 69205.621302                       # average ReadExReq mshr miss latency
system.cpu_cluster.l2.ReadExReq_avg_mshr_miss_latency::total 69205.621302                       # average ReadExReq mshr miss latency
system.cpu_cluster.l2.ReadExReq_hits::.cpu_cluster.cpus.data           54                       # number of ReadExReq hits
system.cpu_cluster.l2.ReadExReq_hits::total           54                       # number of ReadExReq hits
system.cpu_cluster.l2.ReadExReq_miss_latency::.cpu_cluster.cpus.data     71442000                       # number of ReadExReq miss cycles
system.cpu_cluster.l2.ReadExReq_miss_latency::total     71442000                       # number of ReadExReq miss cycles
system.cpu_cluster.l2.ReadExReq_miss_rate::.cpu_cluster.cpus.data     0.949438                       # miss rate for ReadExReq accesses
system.cpu_cluster.l2.ReadExReq_miss_rate::total     0.949438                       # miss rate for ReadExReq accesses
system.cpu_cluster.l2.ReadExReq_misses::.cpu_cluster.cpus.data         1014                       # number of ReadExReq misses
system.cpu_cluster.l2.ReadExReq_misses::total         1014                       # number of ReadExReq misses
system.cpu_cluster.l2.ReadExReq_mshr_miss_latency::.cpu_cluster.cpus.data     70174500                       # number of ReadExReq MSHR miss cycles
system.cpu_cluster.l2.ReadExReq_mshr_miss_latency::total     70174500                       # number of ReadExReq MSHR miss cycles
system.cpu_cluster.l2.ReadExReq_mshr_miss_rate::.cpu_cluster.cpus.data     0.949438                       # mshr miss rate for ReadExReq accesses
system.cpu_cluster.l2.ReadExReq_mshr_miss_rate::total     0.949438                       # mshr miss rate for ReadExReq accesses
system.cpu_cluster.l2.ReadExReq_mshr_misses::.cpu_cluster.cpus.data         1014                       # number of ReadExReq MSHR misses
system.cpu_cluster.l2.ReadExReq_mshr_misses::total         1014                       # number of ReadExReq MSHR misses
system.cpu_cluster.l2.ReadSharedReq_accesses::.cpu_cluster.cpus.inst          430                       # number of ReadSharedReq accesses(hits+misses)
system.cpu_cluster.l2.ReadSharedReq_accesses::.cpu_cluster.cpus.data        17517                       # number of ReadSharedReq accesses(hits+misses)
system.cpu_cluster.l2.ReadSharedReq_accesses::.cpu_cluster.cpus.dcache.prefetcher          981                       # number of ReadSharedReq accesses(hits+misses)
system.cpu_cluster.l2.ReadSharedReq_accesses::total        18928                       # number of ReadSharedReq accesses(hits+misses)
system.cpu_cluster.l2.ReadSharedReq_avg_miss_latency::.cpu_cluster.cpus.inst 73118.193069                       # average ReadSharedReq miss latency
system.cpu_cluster.l2.ReadSharedReq_avg_miss_latency::.cpu_cluster.cpus.data 68511.111111                       # average ReadSharedReq miss latency
system.cpu_cluster.l2.ReadSharedReq_avg_miss_latency::.cpu_cluster.cpus.dcache.prefetcher 69135.372828                       # average ReadSharedReq miss latency
system.cpu_cluster.l2.ReadSharedReq_avg_miss_latency::total 70513.257320                       # average ReadSharedReq miss latency
system.cpu_cluster.l2.ReadSharedReq_avg_mshr_miss_latency::.cpu_cluster.cpus.inst 72156.716418                       # average ReadSharedReq mshr miss latency
system.cpu_cluster.l2.ReadSharedReq_avg_mshr_miss_latency::.cpu_cluster.cpus.data 67386.363636                       # average ReadSharedReq mshr miss latency
system.cpu_cluster.l2.ReadSharedReq_avg_mshr_miss_latency::.cpu_cluster.cpus.dcache.prefetcher 67885.372828                       # average ReadSharedReq mshr miss latency
system.cpu_cluster.l2.ReadSharedReq_avg_mshr_miss_latency::total 69375.281389                       # average ReadSharedReq mshr miss latency
system.cpu_cluster.l2.ReadSharedReq_hits::.cpu_cluster.cpus.inst           26                       # number of ReadSharedReq hits
system.cpu_cluster.l2.ReadSharedReq_hits::.cpu_cluster.cpus.data        17427                       # number of ReadSharedReq hits
system.cpu_cluster.l2.ReadSharedReq_hits::.cpu_cluster.cpus.dcache.prefetcher          348                       # number of ReadSharedReq hits
system.cpu_cluster.l2.ReadSharedReq_hits::total        17801                       # number of ReadSharedReq hits
system.cpu_cluster.l2.ReadSharedReq_miss_latency::.cpu_cluster.cpus.inst     29539750                       # number of ReadSharedReq miss cycles
system.cpu_cluster.l2.ReadSharedReq_miss_latency::.cpu_cluster.cpus.data      6166000                       # number of ReadSharedReq miss cycles
system.cpu_cluster.l2.ReadSharedReq_miss_latency::.cpu_cluster.cpus.dcache.prefetcher     43762691                       # number of ReadSharedReq miss cycles
system.cpu_cluster.l2.ReadSharedReq_miss_latency::total     79468441                       # number of ReadSharedReq miss cycles
system.cpu_cluster.l2.ReadSharedReq_miss_rate::.cpu_cluster.cpus.inst     0.939535                       # miss rate for ReadSharedReq accesses
system.cpu_cluster.l2.ReadSharedReq_miss_rate::.cpu_cluster.cpus.data     0.005138                       # miss rate for ReadSharedReq accesses
system.cpu_cluster.l2.ReadSharedReq_miss_rate::.cpu_cluster.cpus.dcache.prefetcher     0.645260                       # miss rate for ReadSharedReq accesses
system.cpu_cluster.l2.ReadSharedReq_miss_rate::total     0.059541                       # miss rate for ReadSharedReq accesses
system.cpu_cluster.l2.ReadSharedReq_misses::.cpu_cluster.cpus.inst          404                       # number of ReadSharedReq misses
system.cpu_cluster.l2.ReadSharedReq_misses::.cpu_cluster.cpus.data           90                       # number of ReadSharedReq misses
system.cpu_cluster.l2.ReadSharedReq_misses::.cpu_cluster.cpus.dcache.prefetcher          633                       # number of ReadSharedReq misses
system.cpu_cluster.l2.ReadSharedReq_misses::total         1127                       # number of ReadSharedReq misses
system.cpu_cluster.l2.ReadSharedReq_mshr_hits::.cpu_cluster.cpus.inst            2                       # number of ReadSharedReq MSHR hits
system.cpu_cluster.l2.ReadSharedReq_mshr_hits::.cpu_cluster.cpus.data            2                       # number of ReadSharedReq MSHR hits
system.cpu_cluster.l2.ReadSharedReq_mshr_hits::total            4                       # number of ReadSharedReq MSHR hits
system.cpu_cluster.l2.ReadSharedReq_mshr_miss_latency::.cpu_cluster.cpus.inst     29007000                       # number of ReadSharedReq MSHR miss cycles
system.cpu_cluster.l2.ReadSharedReq_mshr_miss_latency::.cpu_cluster.cpus.data      5930000                       # number of ReadSharedReq MSHR miss cycles
system.cpu_cluster.l2.ReadSharedReq_mshr_miss_latency::.cpu_cluster.cpus.dcache.prefetcher     42971441                       # number of ReadSharedReq MSHR miss cycles
system.cpu_cluster.l2.ReadSharedReq_mshr_miss_latency::total     77908441                       # number of ReadSharedReq MSHR miss cycles
system.cpu_cluster.l2.ReadSharedReq_mshr_miss_rate::.cpu_cluster.cpus.inst     0.934884                       # mshr miss rate for ReadSharedReq accesses
system.cpu_cluster.l2.ReadSharedReq_mshr_miss_rate::.cpu_cluster.cpus.data     0.005024                       # mshr miss rate for ReadSharedReq accesses
system.cpu_cluster.l2.ReadSharedReq_mshr_miss_rate::.cpu_cluster.cpus.dcache.prefetcher     0.645260                       # mshr miss rate for ReadSharedReq accesses
system.cpu_cluster.l2.ReadSharedReq_mshr_miss_rate::total     0.059330                       # mshr miss rate for ReadSharedReq accesses
system.cpu_cluster.l2.ReadSharedReq_mshr_misses::.cpu_cluster.cpus.inst          402                       # number of ReadSharedReq MSHR misses
system.cpu_cluster.l2.ReadSharedReq_mshr_misses::.cpu_cluster.cpus.data           88                       # number of ReadSharedReq MSHR misses
system.cpu_cluster.l2.ReadSharedReq_mshr_misses::.cpu_cluster.cpus.dcache.prefetcher          633                       # number of ReadSharedReq MSHR misses
system.cpu_cluster.l2.ReadSharedReq_mshr_misses::total         1123                       # number of ReadSharedReq MSHR misses
system.cpu_cluster.l2.WritebackDirty_accesses::.writebacks        19217                       # number of WritebackDirty accesses(hits+misses)
system.cpu_cluster.l2.WritebackDirty_accesses::total        19217                       # number of WritebackDirty accesses(hits+misses)
system.cpu_cluster.l2.WritebackDirty_hits::.writebacks        19217                       # number of WritebackDirty hits
system.cpu_cluster.l2.WritebackDirty_hits::total        19217                       # number of WritebackDirty hits
system.cpu_cluster.l2.avg_blocked_cycles::no_mshrs           46                       # average number of cycles each access was blocked
system.cpu_cluster.l2.avg_blocked_cycles::no_targets          nan                       # average number of cycles each access was blocked
system.cpu_cluster.l2.blocked::no_mshrs             1                       # number of cycles access was blocked
system.cpu_cluster.l2.blocked::no_targets            0                       # number of cycles access was blocked
system.cpu_cluster.l2.blocked_cycles::no_mshrs           46                       # number of cycles access was blocked
system.cpu_cluster.l2.blocked_cycles::no_targets            0                       # number of cycles access was blocked
system.cpu_cluster.l2.demand_accesses::.cpu_cluster.cpus.inst          430                       # number of demand (read+write) accesses
system.cpu_cluster.l2.demand_accesses::.cpu_cluster.cpus.data        18585                       # number of demand (read+write) accesses
system.cpu_cluster.l2.demand_accesses::.cpu_cluster.cpus.dcache.prefetcher          981                       # number of demand (read+write) accesses
system.cpu_cluster.l2.demand_accesses::total        19996                       # number of demand (read+write) accesses
system.cpu_cluster.l2.demand_avg_miss_latency::.cpu_cluster.cpus.inst 73118.193069                       # average overall miss latency
system.cpu_cluster.l2.demand_avg_miss_latency::.cpu_cluster.cpus.data 70297.101449                       # average overall miss latency
system.cpu_cluster.l2.demand_avg_miss_latency::.cpu_cluster.cpus.dcache.prefetcher 69135.372828                       # average overall miss latency
system.cpu_cluster.l2.demand_avg_miss_latency::total 70485.960299                       # average overall miss latency
system.cpu_cluster.l2.demand_avg_mshr_miss_latency::.cpu_cluster.cpus.inst 72156.716418                       # average overall mshr miss latency
system.cpu_cluster.l2.demand_avg_mshr_miss_latency::.cpu_cluster.cpus.data 69060.344828                       # average overall mshr miss latency
system.cpu_cluster.l2.demand_avg_mshr_miss_latency::.cpu_cluster.cpus.dcache.prefetcher 67885.372828                       # average overall mshr miss latency
system.cpu_cluster.l2.demand_avg_mshr_miss_latency::total 69294.778194                       # average overall mshr miss latency
[...]
system.mem_ctrls1.readPktSize::2                    0                       # Read request sizes (log2)
system.mem_ctrls1.readPktSize::3                    0                       # Read request sizes (log2)
system.mem_ctrls1.readPktSize::4                    0                       # Read request sizes (log2)
system.mem_ctrls1.readPktSize::5                    0                       # Read request sizes (log2)
system.mem_ctrls1.readPktSize::6                 1067                       # Read request sizes (log2)
system.mem_ctrls1.readReqs                       1067                       # Number of read requests accepted
system.mem_ctrls1.readRowHitRate                78.16                       # Row buffer hit rate for reads
system.mem_ctrls1.readRowHits                     834                       # Number of row buffer hits during reads
system.mem_ctrls1.servicedByWrQ                     0                       # Number of DRAM read bursts serviced by the write queue
system.mem_ctrls1.totBusLat                   5335000                       # Total ticks spent in databus transfers
system.mem_ctrls1.totGap                   1276946000                       # Total gap between requests
system.mem_ctrls1.totMemAccLat               37706007                       # Total ticks spent from burst creation until serviced by the DRAM
system.mem_ctrls1.totQLat                    17699757                       # Total ticks spent queuing
system.mem_ctrls1.wrQLenPdf::0                      0                       # What write queue length does an incoming req see
system.mem_ctrls1.wrQLenPdf::1                      0                       # What write queue length does an incoming req see
system.mem_ctrls1.wrQLenPdf::2                      0                       # What write queue length does an incoming req see
system.mem_ctrls1.wrQLenPdf::3                      0                       # What write queue length does an incoming req see
system.mem_ctrls1.wrQLenPdf::4                      0                       # What write queue length does an incoming req see
system.mem_ctrls1.wrQLenPdf::5                      0                       # What write queue length does an incoming req see
system.mem_ctrls1.wrQLenPdf::6                      0                       # What write queue length does an incoming req see
system.mem_ctrls1.wrQLenPdf::7                      0                       # What write queue length does an incoming req see
system.mem_ctrls1.wrQLenPdf::8                      0                       # What write queue length does an incoming req see
system.mem_ctrls1.wrQLenPdf::9                      0                       # What write queue length does an incoming req see
system.mem_ctrls1.wrQLenPdf::10                     0                       # What write queue length does an incoming req see
system.mem_ctrls1.wrQLenPdf::11                     0                       # What write queue length does an incoming req see
system.mem_ctrls1.wrQLenPdf::12                     0                       # What write queue length does an incoming req see
system.mem_ctrls1.wrQLenPdf::13                     0                       # What write queue length does an incoming req see
system.mem_ctrls1.wrQLenPdf::14                     0                       # What write queue length does an incoming req see
system.mem_ctrls1.wrQLenPdf::15                     0                       # What write queue length does an incoming req see
system.mem_ctrls1.wrQLenPdf::16                     0                       # What write queue length does an incoming req see
system.mem_ctrls1.wrQLenPdf::17                     0                       # What write queue length does an incoming req see
system.mem_ctrls1.wrQLenPdf::18                     0                       # What write queue length does an incoming req see
system.mem_ctrls1.wrQLenPdf::19                     0                       # What write queue length does an incoming req see
system.mem_ctrls1.wrQLenPdf::20                     0                       # What write queue length does an incoming req see
system.mem_ctrls1.wrQLenPdf::21                     0                       # What write queue length does an incoming req see
system.mem_ctrls1.wrQLenPdf::22                     0                       # What write queue length does an incoming req see
system.mem_ctrls1.wrQLenPdf::23                     0                       # What write queue length does an incoming req see
system.mem_ctrls1.wrQLenPdf::24                     0                       # What write queue length does an incoming req see
system.mem_ctrls1.wrQLenPdf::25                     0                       # What write queue length does an incoming req see
system.mem_ctrls1.wrQLenPdf::26                     0                       # What write queue length does an incoming req see
system.mem_ctrls1.wrQLenPdf::27                     0                       # What write queue length does an incoming req see
system.mem_ctrls1.wrQLenPdf::28                     0                       # What write queue length does an incoming req see
system.mem_ctrls1.wrQLenPdf::29                     0                       # What write queue length does an incoming req see
system.mem_ctrls1.wrQLenPdf::30                     0                       # What write queue length does an incoming req see
system.mem_ctrls1.wrQLenPdf::31                     0                       # What write queue length does an incoming req see
system.mem_ctrls1.wrQLenPdf::32                     0                       # What write queue length does an incoming req see
system.mem_ctrls1.wrQLenPdf::33                     0                       # What write queue length does an incoming req see
system.mem_ctrls1.wrQLenPdf::34                     0                       # What write queue length does an incoming req see
system.mem_ctrls1.wrQLenPdf::35                     0                       # What write queue length does an incoming req see
system.mem_ctrls1.wrQLenPdf::36                     0                       # What write queue length does an incoming req see
system.mem_ctrls1.wrQLenPdf::37                     0                       # What write queue length does an incoming req see
system.mem_ctrls1.wrQLenPdf::38                     0                       # What write queue length does an incoming req see
system.mem_ctrls1.wrQLenPdf::39                     0                       # What write queue length does an incoming req see
system.mem_ctrls1.wrQLenPdf::40                     0                       # What write queue length does an incoming req see
system.mem_ctrls1.wrQLenPdf::41                     0                       # What write queue length does an incoming req see
system.mem_ctrls1.wrQLenPdf::42                     0                       # What write queue length does an incoming req see
system.mem_ctrls1.wrQLenPdf::43                     0                       # What write queue length does an incoming req see
system.mem_ctrls1.wrQLenPdf::44                     0                       # What write queue length does an incoming req see
system.mem_ctrls1.wrQLenPdf::45                     0                       # What write queue length does an incoming req see
system.mem_ctrls1.wrQLenPdf::46                     0                       # What write queue length does an incoming req see
system.mem_ctrls1.wrQLenPdf::47                     0                       # What write queue length does an incoming req see
system.mem_ctrls1.wrQLenPdf::48                     0                       # What write queue length does an incoming req see
system.mem_ctrls1.wrQLenPdf::49                     0                       # What write queue length does an incoming req see
system.mem_ctrls1.wrQLenPdf::50                     0                       # What write queue length does an incoming req see
system.mem_ctrls1.wrQLenPdf::51                     0                       # What write queue length does an incoming req see
system.mem_ctrls1.wrQLenPdf::52                     0                       # What write queue length does an incoming req see
system.mem_ctrls1.wrQLenPdf::53                     0                       # What write queue length does an incoming req see
system.mem_ctrls1.wrQLenPdf::54                     0                       # What write queue length does an incoming req see
system.mem_ctrls1.wrQLenPdf::55                     0                       # What write queue length does an incoming req see
system.mem_ctrls1.wrQLenPdf::56                     0                       # What write queue length does an incoming req see
system.mem_ctrls1.wrQLenPdf::57                     0                       # What write queue length does an incoming req see
system.mem_ctrls1.wrQLenPdf::58                     0                       # What write queue length does an incoming req see
system.mem_ctrls1.wrQLenPdf::59                     0                       # What write queue length does an incoming req see
system.mem_ctrls1.wrQLenPdf::60                     0                       # What write queue length does an incoming req see
system.mem_ctrls1.wrQLenPdf::61                     0                       # What write queue length does an incoming req see
system.mem_ctrls1.wrQLenPdf::62                     0                       # What write queue length does an incoming req see
system.mem_ctrls1.wrQLenPdf::63                     0                       # What write queue length does an incoming req see
system.mem_ctrls1.writeBursts                       0                       # Number of DRAM write bursts, including those merged in the write queue
system.mem_ctrls1.writePktSize::0                   0                       # Write request sizes (log2)
system.mem_ctrls1.writePktSize::1                   0                       # Write request sizes (log2)
system.mem_ctrls1.writePktSize::2                   0                       # Write request sizes (log2)
system.mem_ctrls1.writePktSize::3                   0                       # Write request sizes (log2)
system.mem_ctrls1.writePktSize::4                   0                       # Write request sizes (log2)
system.mem_ctrls1.writePktSize::5                   0                       # Write request sizes (log2)
system.mem_ctrls1.writePktSize::6                   0                       # Write request sizes (log2)
system.mem_ctrls1.writeReqs                         0                       # Number of write requests accepted
system.mem_ctrls1.writeRowHitRate                 nan                       # Row buffer hit rate for writes
system.mem_ctrls1.writeRowHits                      0                       # Number of row buffer hits during writes
system.mem_ctrls1_0.actBackEnergy             7160340                       # Energy for active background per rank (pJ)
system.mem_ctrls1_0.actEnergy                  428400                       # Energy for activate commands per rank (pJ)
system.mem_ctrls1_0.actPowerDownEnergy       61871220                       # Energy for active power-down per rank (pJ)
system.mem_ctrls1_0.averagePower           282.457640                       # Core power per rank (mW)
system.mem_ctrls1_0.memoryStateTime::IDLE       676000                       # Time in different power states
system.mem_ctrls1_0.memoryStateTime::REF      5720000                       # Time in different power states
system.mem_ctrls1_0.memoryStateTime::SREF   1100206500                       # Time in different power states
system.mem_ctrls1_0.memoryStateTime::PRE_PDN     24159000                       # Time in different power states
system.mem_ctrls1_0.memoryStateTime::ACT     10551250                       # Time in different power states
system.mem_ctrls1_0.memoryStateTime::ACT_PDN    135697000                       # Time in different power states
system.mem_ctrls1_0.preBackEnergy              481920                       # Energy for precharge background per rank (pJ)
system.mem_ctrls1_0.preEnergy                  212520                       # Energy for precharge commands per rank (pJ)
system.mem_ctrls1_0.prePowerDownEnergy        9278880                       # Energy for precharge power-down per rank (pJ)
system.mem_ctrls1_0.readEnergy                2591820                       # Energy for read commands per rank (pJ)
system.mem_ctrls1_0.refreshEnergy        13522080.000000                       # Energy for refresh commands per rank (pJ)
system.mem_ctrls1_0.selfRefreshEnergy       265153980                       # Energy for self refresh per rank (pJ)
system.mem_ctrls1_0.totalEnergy             360701160                       # Total energy per rank (pJ)
system.mem_ctrls1_0.totalIdleTime          1260027500                       # Total Idle time Per DRAM Rank
system.mem_ctrls1_0.writeEnergy                     0                       # Energy for write commands per rank (pJ)
system.mem_ctrls1_1.actBackEnergy            23715420                       # Energy for active background per rank (pJ)
system.mem_ctrls1_1.actEnergy                 1235220                       # Energy for activate commands per rank (pJ)
system.mem_ctrls1_1.actPowerDownEnergy      358648560                       # Energy for active power-down per rank (pJ)
system.mem_ctrls1_1.averagePower           486.960358                       # Core power per rank (mW)
system.mem_ctrls1_1.memoryStateTime::IDLE      1476000                       # Time in different power states
system.mem_ctrls1_1.memoryStateTime::REF     36920000                       # Time in different power states
system.mem_ctrls1_1.memoryStateTime::SREF    167957500                       # Time in different power states
system.mem_ctrls1_1.memoryStateTime::PRE_PDN    265114250                       # Time in different power states
system.mem_ctrls1_1.memoryStateTime::ACT     19108750                       # Time in different power states
system.mem_ctrls1_1.memoryStateTime::ACT_PDN    786433250                       # Time in different power states
system.mem_ctrls1_1.preBackEnergy             2058720                       # Energy for precharge background per rank (pJ)
system.mem_ctrls1_1.preEnergy                  648945                       # Energy for precharge commands per rank (pJ)
system.mem_ctrls1_1.prePowerDownEnergy      101826240                       # Energy for precharge power-down per rank (pJ)
system.mem_ctrls1_1.readEnergy                5026560                       # Energy for read commands per rank (pJ)
system.mem_ctrls1_1.refreshEnergy        87278880.000000                       # Energy for refresh commands per rank (pJ)
system.mem_ctrls1_1.selfRefreshEnergy        41414580                       # Energy for self refresh per rank (pJ)
system.mem_ctrls1_1.totalEnergy             621853125                       # Total energy per rank (pJ)
system.mem_ctrls1_1.totalIdleTime          1217131250                       # Total Idle time Per DRAM Rank
system.mem_ctrls1_1.writeEnergy                     0                       # Energy for write commands per rank (pJ)
system.membus.pkt_count_system.cpu_cluster.l2.mem_side::system.mem_ctrls0.port         2138                       # Packet count per connected master and slave (bytes)
system.membus.pkt_count_system.cpu_cluster.l2.mem_side::system.mem_ctrls1.port         2134                       # Packet count per connected master and slave (bytes)
system.membus.pkt_count_system.cpu_cluster.l2.mem_side::total         4272                       # Packet count per connected master and slave (bytes)
system.membus.pkt_count::total                   4272                       # Packet count per connected master and slave (bytes)
system.membus.pkt_size_system.cpu_cluster.l2.mem_side::system.mem_ctrls0.port        68416                       # Cumulative packet size per connected master and slave (bytes)
system.membus.pkt_size_system.cpu_cluster.l2.mem_side::system.mem_ctrls1.port        68288                       # Cumulative packet size per connected master and slave (bytes)
system.membus.pkt_size_system.cpu_cluster.l2.mem_side::total       136704                       # Cumulative packet size per connected master and slave (bytes)
system.membus.pkt_size::total                  136704                       # Cumulative packet size per connected master and slave (bytes)
system.membus.pwrStateResidencyTicks::UNDEFINED   1277009750                       # Cumulative time (in ticks) in various power states
system.membus.reqLayer0.occupancy             1431064                       # Layer occupancy (ticks)
system.membus.reqLayer0.utilization               0.1                       # Layer utilization (%)
system.membus.reqLayer1.occupancy             1409245                       # Layer occupancy (ticks)
system.membus.reqLayer1.utilization               0.1                       # Layer utilization (%)
system.membus.respLayer1.occupancy           11259988                       # Layer occupancy (ticks)
system.membus.respLayer1.utilization              0.9                       # Layer utilization (%)
system.membus.snoopTraffic                          0                       # Total snoop traffic (bytes)
system.membus.snoop_fanout::samples              2136                       # Request fanout histogram
system.membus.snoop_fanout::mean                    0                       # Request fanout histogram
system.membus.snoop_fanout::stdev                   0                       # Request fanout histogram
system.membus.snoop_fanout::underflows              0      0.00%      0.00% # Request fanout histogram
system.membus.snoop_fanout::0                    2136    100.00%    100.00% # Request fanout histogram
system.membus.snoop_fanout::1                       0      0.00%    100.00% # Request fanout histogram
system.membus.snoop_fanout::overflows               0      0.00%    100.00% # Request fanout histogram
system.membus.snoop_fanout::min_value               0                       # Request fanout histogram
system.membus.snoop_fanout::max_value               0                       # Request fanout histogram
system.membus.snoop_fanout::total                2136                       # Request fanout histogram
system.membus.snoop_filter.hit_multi_requests            0                       # Number of requests hitting in the snoop filter with multiple (>1) holders of the requested data.
system.membus.snoop_filter.hit_multi_snoops            0                       # Number of snoops hitting in the snoop filter with multiple (>1) holders of the requested data.
system.membus.snoop_filter.hit_single_requests            0                       # Number of requests hitting in the snoop filter with a single holder of the requested data.
system.membus.snoop_filter.hit_single_snoops            0                       # Number of snoops hitting in the snoop filter with a single holder of the requested data.
system.membus.snoop_filter.tot_requests          2136                       # Total number of requests made to the snoop filter.
system.membus.snoop_filter.tot_snoops               0                       # Total number of snoops made to the snoop filter.
system.membus.snoops                                0                       # Total snoops (count)
system.membus.trans_dist::ReadResp               1122                       # Transaction distribution
system.membus.trans_dist::ReadExReq              1014                       # Transaction distribution
system.membus.trans_dist::ReadExResp             1014                       # Transaction distribution
system.membus.trans_dist::ReadSharedReq          1122                       # Transaction distribution
system.voltage_domain.voltage                3.300000                       # Voltage in Volts

---------- End Simulation Statistics   ----------
