
---------- Begin Simulation Statistics ----------
final_tick                                  535432750                       # Number of ticks from beginning of simulation (restored from checkpoints and never reset)
host_inst_rate                                 415212                       # Simulator instruction rate (inst/s)
host_mem_usage                                2303348                       # Number of bytes of host memory used
host_op_rate                                   421065                       # Simulator op (including micro ops) rate (op/s)
host_seconds                                     4.12                       # Real time elapsed on the host
host_tick_rate                              129966399                       # Simulator tick rate (ticks/s)
sim_freq                                 1000000000000                       # Frequency of simulated ticks
sim_insts                                     1710550                       # Number of instructions simulated
sim_ops                                       1734691                       # Number of ops (including micro ops) simulated
sim_seconds                                  0.000535                       # Number of seconds simulated
sim_ticks                                   535432750                       # Number of ticks simulated
system.clk_domain.clock                          1000                       # Clock period in ticks
system.cpu_cluster.clk_domain.clock               250                       # Clock period in ticks
system.cpu_cluster.cpus.branchPred.BTBCorrect            0                       # Number of correct BTB predictions (this stat may not work properly.
system.cpu_cluster.cpus.branchPred.BTBHitPct    99.348951                       # BTB Hit Percentage
system.cpu_cluster.cpus.branchPred.BTBHits       150462                       # Number of BTB hits
system.cpu_cluster.cpus.branchPred.BTBLookups       151448                       # Number of BTB lookups
system.cpu_cluster.cpus.branchPred.RASInCorrect            0                       # Number of incorrect RAS predictions.
system.cpu_cluster.cpus.branchPred.condIncorrect        41181                       # Number of conditional branches incorrect
system.cpu_cluster.cpus.branchPred.condPredicted       267056                       # Number of conditional branches predicted
system.cpu_cluster.cpus.branchPred.indirectHits           16                       # Number of indirect target hits.
system.cpu_cluster.cpus.branchPred.indirectLookups          152                       # Number of indirect predictor lookups.
system.cpu_cluster.cpus.branchPred.indirectMisses          136                       # Number of indirect misses.
system.cpu_cluster.cpus.branchPred.lookups       291449                       # Number of BP lookups
system.cpu_cluster.cpus.branchPred.usedRAS         6911                       # Number of times the RAS was used to get a target.
system.cpu_cluster.cpus.branchPredindirectMispredicted           65                       # Number of mispredicted indirect branches.
system.cpu_cluster.cpus.committedInsts        1710550                       # Number of instructions committed
system.cpu_cluster.cpus.committedOps          1734691                       # Number of ops (including micro ops) committed
system.cpu_cluster.cpus.cpi                  1.252072                       # CPI: cycles per instruction
system.cpu_cluster.cpus.dcache.HardPFReq_avg_mshr_miss_latency::.cpu_cluster.cpus.dcache.prefetcher 67811.750000                       # average HardPFReq mshr miss latency
system.cpu_cluster.cpus.dcache.HardPFReq_avg_mshr_miss_latency::total 67811.750000                       # average HardPFReq mshr miss latency
system.cpu_cluster.cpus.dcache.HardPFReq_mshr_miss_latency::.cpu_cluster.cpus.dcache.prefetcher       271247                       # number of HardPFReq MSHR miss cycles
system.cpu_cluster.cpus.dcache.HardPFReq_mshr_miss_latency::total       271247                       # number of HardPFReq MSHR miss cycles
system.cpu_cluster.cpus.dcache.HardPFReq_mshr_miss_rate::.cpu_cluster.cpus.dcache.prefetcher          inf                       # mshr miss rate for HardPFReq accesses
system.cpu_cluster.cpus.dcache.HardPFReq_mshr_miss_rate::total          inf                       # mshr miss rate for HardPFReq accesses
system.cpu_cluster.cpus.dcache.HardPFReq_mshr_misses::.cpu_cluster.cpus.dcache.prefetcher            4                       # number of HardPFReq MSHR misses
system.cpu_cluster.cpus.dcache.HardPFReq_mshr_misses::total            4                       # number of HardPFReq MSHR misses
system.cpu_cluster.cpus.dcache.LoadLockedReq_accesses::.cpu_cluster.cpus.data           18                       # number of LoadLockedReq accesses(hits+misses)
system.cpu_cluster.cpus.dcache.LoadLockedReq_accesses::total           18                       # number of LoadLockedReq accesses(hits+misses)
system.cpu_cluster.cpus.dcache.LoadLockedReq_hits::.cpu_cluster.cpus.data           18                       # number of LoadLockedReq hits
system.cpu_cluster.cpus.dcache.LoadLockedReq_hits::total           18                       # number of LoadLockedReq hits
system.cpu_cluster.cpus.dcache.ReadReq_accesses::.cpu_cluster.cpus.data       713098                       # number of ReadReq accesses(hits+misses)
system.cpu_cluster.cpus.dcache.ReadReq_accesses::total       713098                       # number of ReadReq accesses(hits+misses)
system.cpu_cluster.cpus.dcache.ReadReq_avg_miss_latency::.cpu_cluster.cpus.data 63523.437500                       # average ReadReq miss latency
system.cpu_cluster.cpus.dcache.ReadReq_avg_miss_latency::total 63523.437500                       # average ReadReq miss latency
system.cpu_cluster.cpus.dcache.ReadReq_avg_mshr_miss_latency::.cpu_cluster.cpus.data 63408.333333                       # average ReadReq mshr miss latency
system.cpu_cluster.cpus.dcache.ReadReq_avg_mshr_miss_latency::total 63408.333333                       # average ReadReq mshr miss latency
system.cpu_cluster.cpus.dcache.ReadReq_hits::.cpu_cluster.cpus.data       713002                       # number of ReadReq hits
system.cpu_cluster.cpus.dcache.ReadReq_hits::total       713002                       # number of ReadReq hits
system.cpu_cluster.cpus.dcache.ReadReq_miss_latency::.cpu_cluster.cpus.data      6098250                       # number of ReadReq miss cycles
system.cpu_cluster.cpus.dcache.ReadReq_miss_latency::total      6098250                       # number of ReadReq miss cycles
system.cpu_cluster.cpus.dcache.ReadReq_miss_rate::.cpu_cluster.cpus.data     0.000135                       # miss rate for ReadReq accesses
system.cpu_cluster.cpus.dcache.ReadReq_miss_rate::total     0.000135                       # miss rate for ReadReq accesses
system.cpu_cluster.cpus.dcache.ReadReq_misses::.cpu_cluster.cpus.data           96                       # number of ReadReq misses
system.cpu_cluster.cpus.dcache.ReadReq_misses::total           96                       # number of ReadReq misses
system.cpu_cluster.cpus.dcache.ReadReq_mshr_hits::.cpu_cluster.cpus.data            6                       # number of ReadReq MSHR hits
system.cpu_cluster.cpus.dcache.ReadReq_mshr_hits::total            6                       # number of ReadReq MSHR hits
system.cpu_cluster.cpus.dcache.ReadReq_mshr_miss_latency::.cpu_cluster.cpus.data      5706750                       # number of ReadReq MSHR miss cycles
system.cpu_cluster.cpus.dcache.ReadReq_mshr_miss_latency::total      5706750                       # number of ReadReq MSHR miss cycles
system.cpu_cluster.cpus.dcache.ReadReq_mshr_miss_rate::.cpu_cluster.cpus.data     0.000126                       # mshr miss rate for ReadReq accesses
system.cpu_cluster.cpus.dcache.ReadReq_mshr_miss_rate::total     0.000126                       # mshr miss rate for ReadReq accesses
system.cpu_cluster.cpus.dcache.ReadReq_mshr_misses::.cpu_cluster.cpus.data           90                       # number of ReadReq MSHR misses
system.cpu_cluster.cpus.dcache.ReadReq_mshr_misses::total           90                       # number of ReadReq MSHR misses
system.cpu_cluster.cpus.dcache.SoftPFReq_accesses::.cpu_cluster.cpus.data           35                       # number of SoftPFReq accesses(hits+misses)
system.cpu_cluster.cpus.dcache.SoftPFReq_accesses::total           35                       # number of SoftPFReq accesses(hits+misses)
system.cpu_cluster.cpus.dcache.SoftPFReq_avg_mshr_miss_latency::.cpu_cluster.cpus.data        68750                       # average SoftPFReq mshr miss latency
system.cpu_cluster.cpus.dcache.SoftPFReq_avg_mshr_miss_latency::total        68750                       # average SoftPFReq mshr miss latency
system.cpu_cluster.cpus.dcache.SoftPFReq_hits::.cpu_cluster.cpus.data           21                       # number of SoftPFReq hits
system.cpu_cluster.cpus.dcache.SoftPFReq_hits::total           21                       # number of SoftPFReq hits
system.cpu_cluster.cpus.dcache.SoftPFReq_miss_rate::.cpu_cluster.cpus.data     0.400000                       # miss rate for SoftPFReq accesses
system.cpu_cluster.cpus.dcache.SoftPFReq_miss_rate::total     0.400000                       # miss rate for SoftPFReq accesses
system.cpu_cluster.cpus.dcache.SoftPFReq_misses::.cpu_cluster.cpus.data           14                       # number of SoftPFReq misses
system.cpu_cluster.cpus.dcache.SoftPFReq_misses::total           14                       # number of SoftPFReq misses
system.cpu_cluster.cpus.dcache.SoftPFReq_mshr_miss_latency::.cpu_cluster.cpus.data       618750                       # number of SoftPFReq MSHR miss cycles
system.cpu_cluster.cpus.dcache.SoftPFReq_mshr_miss_latency::total       618750                       # number of SoftPFReq MSHR miss cycles
system.cpu_cluster.cpus.dcache.SoftPFReq_mshr_miss_rate::.cpu_cluster.cpus.data     0.257143                       # mshr miss rate for SoftPFReq accesses
system.cpu_cluster.cpus.dcache.SoftPFReq_mshr_miss_rate::total     0.257143                       # mshr miss rate for SoftPFReq accesses
system.cpu_cluster.cpus.dcache.SoftPFReq_mshr_misses::.cpu_cluster.cpus.data            9                       # number of SoftPFReq MSHR misses
system.cpu_cluster.cpus.dcache.SoftPFReq_mshr_misses::total            9                       # number of SoftPFReq MSHR misses
system.cpu_cluster.cpus.dcache.StoreCondReq_accesses::.cpu_cluster.cpus.data           18                       # number of StoreCondReq accesses(hits+misses)
system.cpu_cluster.cpus.dcache.StoreCondReq_accesses::total           18                       # number of StoreCondReq accesses(hits+misses)
system.cpu_cluster.cpus.dcache.StoreCondReq_hits::.cpu_cluster.cpus.data           18                       # number of StoreCondReq hits
system.cpu_cluster.cpus.dcache.StoreCondReq_hits::total           18                       # number of StoreCondReq hits
system.cpu_cluster.cpus.dcache.WriteReq_accesses::.cpu_cluster.cpus.data       187405                       # number of WriteReq accesses(hits+misses)
system.cpu_cluster.cpus.dcache.WriteReq_accesses::total       187405                       # number of WriteReq accesses(hits+misses)
system.cpu_cluster.cpus.dcache.WriteReq_avg_miss_latency::.cpu_cluster.cpus.data 91091.101695                       # average WriteReq miss latency
system.cpu_cluster.cpus.dcache.WriteReq_avg_miss_latency::total 91091.101695                       # average WriteReq miss latency
system.cpu_cluster.cpus.dcache.WriteReq_avg_mshr_miss_latency::.cpu_cluster.cpus.data 90192.857143                       # average WriteReq mshr miss latency
system.cpu_cluster.cpus.dcache.WriteReq_avg_mshr_miss_latency::total 90192.857143                       # average WriteReq mshr miss latency
system.cpu_cluster.cpus.dcache.WriteReq_hits::.cpu_cluster.cpus.data       187287                       # number of WriteReq hits
system.cpu_cluster.cpus.dcache.WriteReq_hits::total       187287                       # number of WriteReq hits
system.cpu_cluster.cpus.dcache.WriteReq_miss_latency::.cpu_cluster.cpus.data     10748750                       # number of WriteReq miss cycles
system.cpu_cluster.cpus.dcache.WriteReq_miss_latency::total     10748750                       # number of WriteReq miss cycles
system.cpu_cluster.cpus.dcache.WriteReq_miss_rate::.cpu_cluster.cpus.data     0.000630                       # miss rate for WriteReq accesses
system.cpu_cluster.cpus.dcache.WriteReq_miss_rate::total     0.000630                       # miss rate for WriteReq accesses
system.cpu_cluster.cpus.dcache.WriteReq_misses::.cpu_cluster.cpus.data          118                       # number of WriteReq misses
system.cpu_cluster.cpus.dcache.WriteReq_misses::total          118                       # number of WriteReq misses
system.cpu_cluster.cpus.dcache.WriteReq_mshr_hits::.cpu_cluster.cpus.data           48                       # number of WriteReq MSHR hits
system.cpu_cluster.cpus.dcache.WriteReq_mshr_hits::total           48                       # number of WriteReq MSHR hits
system.cpu_cluster.cpus.dcache.WriteReq_mshr_miss_latency::.cpu_cluster.cpus.data      6313500                       # number of WriteReq MSHR miss cycles
system.cpu_cluster.cpus.dcache.WriteReq_mshr_miss_latency::total      6313500                       # number of WriteReq MSHR miss cycles
system.cpu_cluster.cpus.dcache.WriteReq_mshr_miss_rate::.cpu_cluster.cpus.data     0.000374                       # mshr miss rate for WriteReq accesses
system.cpu_cluster.cpus.dcache.WriteReq_mshr_miss_rate::total     0.000374                       # mshr miss rate for WriteReq accesses
system.cpu_cluster.cpus.dcache.WriteReq_mshr_misses::.cpu_cluster.cpus.data           70                       # number of WriteReq MSHR misses
system.cpu_cluster.cpus.dcache.WriteReq_mshr_misses::total           70                       # number of WriteReq MSHR misses
system.cpu_cluster.cpus.dcache.avg_blocked_cycles::no_mshrs          nan                       # average number of cycles each access was blocked
system.cpu_cluster.cpus.dcache.avg_blocked_cycles::no_targets          nan                       # average number of cycles each access was blocked
system.cpu_cluster.cpus.dcache.blocked::no_mshrs            0                       # number of cycles access was blocked
system.cpu_cluster.cpus.dcache.blocked::no_targets            0                       # number of cycles access was blocked
system.cpu_cluster.cpus.dcache.blocked_cycles::no_mshrs            0                       # number of cycles access was blocked
system.cpu_cluster.cpus.dcache.blocked_cycles::no_targets            0                       # number of cycles access was blocked
system.cpu_cluster.cpus.dcache.demand_accesses::.cpu_cluster.cpus.data       900503                       # number of demand (read+write) accesses
system.cpu_cluster.cpus.dcache.demand_accesses::total       900503                       # number of demand (read+write) accesses
system.cpu_cluster.cpus.dcache.demand_avg_miss_latency::.cpu_cluster.cpus.data 78724.299065                       # average overall miss latency
system.cpu_cluster.cpus.dcache.demand_avg_miss_latency::total 78724.299065                       # average overall miss latency
system.cpu_cluster.cpus.dcache.demand_avg_mshr_miss_latency::.cpu_cluster.cpus.data 75126.562500                       # average overall mshr miss latency
system.cpu_cluster.cpus.dcache.demand_avg_mshr_miss_latency::total 75126.562500                       # average overall mshr miss latency
system.cpu_cluster.cpus.dcache.demand_hits::.cpu_cluster.cpus.data       900289                       # number of demand (read+write) hits
system.cpu_cluster.cpus.dcache.demand_hits::total       900289                       # number of demand (read+write) hits
system.cpu_cluster.cpus.dcache.demand_miss_latency::.cpu_cluster.cpus.data     16847000                       # number of demand (read+write) miss cycles
system.cpu_cluster.cpus.dcache.demand_miss_latency::total     16847000                       # number of demand (read+write) miss cycles
system.cpu_cluster.cpus.dcache.demand_miss_rate::.cpu_cluster.cpus.data     0.000238                       # miss rate for demand accesses
system.cpu_cluster.cpus.dcache.demand_miss_rate::total     0.000238                       # miss rate for demand accesses
system.cpu_cluster.cpus.dcache.demand_misses::.cpu_cluster.cpus.data          214                       # number of demand (read+write) misses
system.cpu_cluster.cpus.dcache.demand_misses::total          214                       # number of demand (read+write) misses
system.cpu_cluster.cpus.dcache.demand_mshr_hits::.cpu_cluster.cpus.data           54                       # number of demand (read+write) MSHR hits
system.cpu_cluster.cpus.dcache.demand_mshr_hits::total           54                       # number of demand (read+write) MSHR hits
system.cpu_cluster.cpus.dcache.demand_mshr_miss_latency::.cpu_cluster.cpus.data     12020250                       # number of demand (read+write) MSHR miss cycles
system.cpu_cluster.cpus.dcache.demand_mshr_miss_latency::total     12020250                       # number of demand (read+write) MSHR miss cycles
system.cpu_cluster.cpus.dcache.demand_mshr_miss_rate::.cpu_cluster.cpus.data     0.000178                       # mshr miss rate for demand accesses
system.cpu_cluster.cpus.dcache.demand_mshr_miss_rate::total     0.000178                       # mshr miss rate for demand accesses
system.cpu_cluster.cpus.dcache.demand_mshr_misses::.cpu_cluster.cpus.data          160                       # number of demand (read+write) MSHR misses
system.cpu_cluster.cpus.dcache.demand_mshr_misses::total          160                       # number of demand (read+write) MSHR misses
system.cpu_cluster.cpus.dcache.overall_accesses::.cpu_cluster.cpus.data       900538                       # number of overall (read+write) accesses
system.cpu_cluster.cpus.dcache.overall_accesses::total       900538                       # number of overall (read+write) accesses
system.cpu_cluster.cpus.dcache.overall_avg_miss_latency::.cpu_cluster.cpus.data 73890.350877                       # average overall miss latency
system.cpu_cluster.cpus.dcache.overall_avg_miss_latency::total 73890.350877                       # average overall miss latency
system.cpu_cluster.cpus.dcache.overall_avg_mshr_miss_latency::.cpu_cluster.cpus.data 74786.982249                       # average overall mshr miss latency
system.cpu_cluster.cpus.dcache.overall_avg_mshr_miss_latency::.cpu_cluster.cpus.dcache.prefetcher 67811.750000                       # average overall mshr miss latency
system.cpu_cluster.cpus.dcache.overall_avg_mshr_miss_latency::total 74625.705202                       # average overall mshr miss latency
system.cpu_cluster.cpus.dcache.overall_hits::.cpu_cluster.cpus.data       900310                       # number of overall hits
system.cpu_cluster.cpus.dcache.overall_hits::total       900310                       # number of overall hits
system.cpu_cluster.cpus.dcache.overall_miss_latency::.cpu_cluster.cpus.data     16847000                       # number of overall miss cycles
system.cpu_cluster.cpus.dcache.overall_miss_latency::total     16847000                       # number of overall miss cycles
system.cpu_cluster.cpus.dcache.overall_miss_rate::.cpu_cluster.cpus.data     0.000253                       # miss rate for overall accesses
system.cpu_cluster.cpus.dcache.overall_miss_rate::total     0.000253                       # miss rate for overall accesses
system.cpu_cluster.cpus.dcache.overall_misses::.cpu_cluster.cpus.data          228                       # number of overall misses
system.cpu_cluster.cpus.dcache.overall_misses::total          228                       # number of overall misses
system.cpu_cluster.cpus.dcache.overall_mshr_hits::.cpu_cluster.cpus.data           54                       # number of overall MSHR hits
system.cpu_cluster.cpus.dcache.overall_mshr_hits::total           54                       # number of overall MSHR hits
system.cpu_cluster.cpus.dcache.overall_mshr_miss_latency::.cpu_cluster.cpus.data     12639000                       # number of overall MSHR miss cycles
system.cpu_cluster.cpus.dcache.overall_mshr_miss_latency::.cpu_cluster.cpus.dcache.prefetcher       271247                       # number of overall MSHR miss cycles
system.cpu_cluster.cpus.dcache.overall_mshr_miss_latency::total     12910247                       # number of overall MSHR miss cycles
system.cpu_cluster.cpus.dcache.overall_mshr_miss_rate::.cpu_cluster.cpus.data     0.000188                       # mshr miss rate for overall accesses
system.cpu_cluster.cpus.dcache.overall_mshr_miss_rate::.cpu_cluster.cpus.dcache.prefetcher          inf                       # mshr miss rate for overall accesses
system.cpu_cluster.cpus.dcache.overall_mshr_miss_rate::total     0.000192                       # mshr miss rate for overall accesses
system.cpu_cluster.cpus.dcache.overall_mshr_misses::.cpu_cluster.cpus.data          169                       # number of overall MSHR misses
system.cpu_cluster.cpus.dcache.overall_mshr_misses::.cpu_cluster.cpus.dcache.prefetcher            4                       # number of overall MSHR misses
system.cpu_cluster.cpus.dcache.overall_mshr_misses::total          173                       # number of overall MSHR misses
system.cpu_cluster.cpus.dcache.prefetcher.num_hwpf_issued            4                       # number of hwpf issued
system.cpu_cluster.cpus.dcache.prefetcher.pfBufferHit            0                       # number of redundant prefetches already in prefetch queue
system.cpu_cluster.cpus.dcache.prefetcher.pfIdentified            4                       # number of prefetch candidates identified
system.cpu_cluster.cpus.dcache.prefetcher.pfInCache            0                       # number of redundant prefetches already in cache/mshr dropped
system.cpu_cluster.cpus.dcache.prefetcher.pfRemovedFull            0                       # number of prefetches dropped due to prefetch queue size
system.cpu_cluster.cpus.dcache.prefetcher.pfSpanPage            0                       # number of prefetches that crossed the page
system.cpu_cluster.cpus.dcache.prefetcher.pwrStateResidencyTicks::UNDEFINED    535432750                       # Cumulative time (in ticks) in various power states
system.cpu_cluster.cpus.dcache.pwrStateResidencyTicks::UNDEFINED    535432750                       # Cumulative time (in ticks) in various power states
system.cpu_cluster.cpus.dcache.replacements            0                       # number of replacements
system.cpu_cluster.cpus.dcache.tags.age_task_id_blocks_1022::2            4                       # Occupied blocks per task id
system.cpu_cluster.cpus.dcache.tags.age_task_id_blocks_1024::0           30                       # Occupied blocks per task id
system.cpu_cluster.cpus.dcache.tags.age_task_id_blocks_1024::1            8                       # Occupied blocks per task id
system.cpu_cluster.cpus.dcache.tags.age_task_id_blocks_1024::2          131                       # Occupied blocks per task id
system.cpu_cluster.cpus.dcache.tags.avg_refs  5205.312139                       # Average number of references to valid blocks.
system.cpu_cluster.cpus.dcache.tags.data_accesses      7204765                       # Number of data accesses
system.cpu_cluster.cpus.dcache.tags.occ_blocks::.cpu_cluster.cpus.data   128.757871                       # Average occupied blocks per requestor
system.cpu_cluster.cpus.dcache.tags.occ_blocks::.cpu_cluster.cpus.dcache.prefetcher     3.943063                       # Average occupied blocks per requestor
system.cpu_cluster.cpus.dcache.tags.occ_percent::.cpu_cluster.cpus.data     0.251480                       # Average percentage of cache occupancy
system.cpu_cluster.cpus.dcache.tags.occ_percent::.cpu_cluster.cpus.dcache.prefetcher     0.007701                       # Average percentage of cache occupancy
system.cpu_cluster.cpus.dcache.tags.occ_percent::total     0.259182                       # Average percentage of cache occupancy
system.cpu_cluster.cpus.dcache.tags.occ_task_id_blocks::1022            4                       # Occupied blocks per task id
system.cpu_cluster.cpus.dcache.tags.occ_task_id_blocks::1024          169                       # Occupied blocks per task id
system.cpu_cluster.cpus.dcache.tags.occ_task_id_percent::1022     0.007812                       # Percentage of cache occupancy per task id
system.cpu_cluster.cpus.dcache.tags.occ_task_id_percent::1024     0.330078                       # Percentage of cache occupancy per task id
system.cpu_cluster.cpus.dcache.tags.pwrStateResidencyTicks::UNDEFINED    535432750                       # Cumulative time (in ticks) in various power states
system.cpu_cluster.cpus.dcache.tags.sampled_refs          173                       # Sample count of references to valid blocks.
system.cpu_cluster.cpus.dcache.tags.tag_accesses      7204765                       # Number of tag accesses
system.cpu_cluster.cpus.dcache.tags.tagsinuse   132.700934                       # Cycle average of tags in use
system.cpu_cluster.cpus.dcache.tags.total_refs       900519                       # Total number of references to valid blocks.
system.cpu_cluster.cpus.dcache.tags.warmup_cycle       152500                       # Cycle when the warmup percentage was hit.
system.cpu_cluster.cpus.discardedOps            70207                       # Number of ops (including micro ops) which were discarded before commit
system.cpu_cluster.cpus.dstage2_mmu.stage2_tlb.accesses            0                       # DTB accesses
system.cpu_cluster.cpus.dstage2_mmu.stage2_tlb.align_faults            0                       # Number of TLB faults due to alignment restrictions
system.cpu_cluster.cpus.dstage2_mmu.stage2_tlb.domain_faults            0                       # Number of TLB faults due to domain restrictions
system.cpu_cluster.cpus.dstage2_mmu.stage2_tlb.flush_entries            0                       # Number of entries that have been flushed from TLB
system.cpu_cluster.cpus.dstage2_mmu.stage2_tlb.flush_tlb            0                       # Number of times complete TLB was flushed
system.cpu_cluster.cpus.dstage2_mmu.stage2_tlb.flush_tlb_asid            0                       # Number of times TLB was flushed by ASID
system.cpu_cluster.cpus.dstage2_mmu.stage2_tlb.flush_tlb_mva            0                       # Number of times TLB was flushed by MVA
system.cpu_cluster.cpus.dstage2_mmu.stage2_tlb.flush_tlb_mva_asid            0                       # Number of times TLB was flushed by MVA & ASID
system.cpu_cluster.cpus.dstage2_mmu.stage2_tlb.hits            0                       # DTB hits
system.cpu_cluster.cpus.dstage2_mmu.stage2_tlb.inst_accesses            0                       # ITB inst accesses
system.cpu_cluster.cpus.dstage2_mmu.stage2_tlb.inst_hits            0                       # ITB inst hits
system.cpu_cluster.cpus.dstage2_mmu.stage2_tlb.inst_misses            0                       # ITB inst misses
system.cpu_cluster.cpus.dstage2_mmu.stage2_tlb.misses            0                       # DTB misses
system.cpu_cluster.cpus.dstage2_mmu.stage2_tlb.perms_faults            0                       # Number of TLB faults due to permissions restrictions
system.cpu_cluster.cpus.dstage2_mmu.stage2_tlb.prefetch_faults            0                       # Number of TLB faults due to prefetch
system.cpu_cluster.cpus.dstage2_mmu.stage2_tlb.read_accesses            0                       # DTB read accesses
system.cpu_cluster.cpus.dstage2_mmu.stage2_tlb.read_hits            0                       # DTB read hits
system.cpu_cluster.cpus.dstage2_mmu.stage2_tlb.read_misses            0                       # DTB read misses
system.cpu_cluster.cpus.dstage2_mmu.stage2_tlb.walker.pwrStateResidencyTicks::UNDEFINED    535432750                       # Cumulative time (in ticks) in various power states
system.cpu_cluster.cpus.dstage2_mmu.stage2_tlb.walker.walkRequestOrigin_Requested::Data            0                       # Table walker requests started/completed, data/inst
system.cpu_cluster.cpus.dstage2_mmu.stage2_tlb.walker.walkRequestOrigin_Requested::Inst            0                       # Table walker requests started/completed, data/inst
system.cpu_cluster.cpus.dstage2_mmu.stage2_tlb.walker.walkRequestOrigin_Requested::total            0                       # Table walker requests started/completed, data/inst
system.cpu_cluster.cpus.dstage2_mmu.stage2_tlb.walker.walkRequestOrigin_Completed::Data            0                       # Table walker requests started/completed, data/inst
system.cpu_cluster.cpus.dstage2_mmu.stage2_tlb.walker.walkRequestOrigin_Completed::Inst            0                       # Table walker requests started/completed, data/inst
system.cpu_cluster.cpus.dstage2_mmu.stage2_tlb.walker.walkRequestOrigin_Completed::total            0                       # Table walker requests started/completed, data/inst
system.cpu_cluster.cpus.dstage2_mmu.stage2_tlb.walker.walkRequestOrigin::total            0                       # Table walker requests started/completed, data/inst
system.cpu_cluster.cpus.dstage2_mmu.stage2_tlb.walker.walks            0                       # Table walker walks requested
system.cpu_cluster.cpus.dstage2_mmu.stage2_tlb.write_accesses            0                       # DTB write accesses
system.cpu_cluster.cpus.dstage2_mmu.stage2_tlb.write_hits            0                       # DTB write hits
system.cpu_cluster.cpus.dstage2_mmu.stage2_tlb.write_misses            0                       # DTB write misses
system.cpu_cluster.cpus.dtb.accesses                0                       # DTB accesses
system.cpu_cluster.cpus.dtb.align_faults            0                       # Number of TLB faults due to alignment restrictions
system.cpu_cluster.cpus.dtb.domain_faults            0                       # Number of TLB faults due to domain restrictions
system.cpu_cluster.cpus.dtb.flush_entries            0                       # Number of entries that have been flushed from TLB
system.cpu_cluster.cpus.dtb.flush_tlb               0                       # Number of times complete TLB was flushed
system.cpu_cluster.cpus.dtb.flush_tlb_asid            0                       # Number of times TLB was flushed by ASID
system.cpu_cluster.cpus.dtb.flush_tlb_mva            0                       # Number of times TLB was flushed by MVA
system.cpu_cluster.cpus.dtb.flush_tlb_mva_asid            0                       # Number of times TLB was flushed by MVA & ASID
system.cpu_cluster.cpus.dtb.hits                    0                       # DTB hits
system.cpu_cluster.cpus.dtb.inst_accesses            0                       # ITB inst accesses
system.cpu_cluster.cpus.dtb.inst_hits               0                       # ITB inst hits
system.cpu_cluster.cpus.dtb.inst_misses             0                       # ITB inst misses
system.cpu_cluster.cpus.dtb.misses                  0                       # DTB misses
system.cpu_cluster.cpus.dtb.perms_faults            0                       # Number of TLB faults due to permissions restrictions
system.cpu_cluster.cpus.dtb.prefetch_faults            0                       # Number of TLB faults due to prefetch
system.cpu_cluster.cpus.dtb.read_accesses            0                       # DTB read accesses
system.cpu_cluster.cpus.dtb.read_hits               0                       # DTB read hits
system.cpu_cluster.cpus.dtb.read_misses             0                       # DTB read misses
system.cpu_cluster.cpus.dtb.walker.pwrStateResidencyTicks::UNDEFINED    535432750                       # Cumulative time (in ticks) in various power states
system.cpu_cluster.cpus.dtb.walker.walkRequestOrigin_Requested::Data            0                       # Table walker requests started/completed, data/inst
system.cpu_cluster.cpus.dtb.walker.walkRequestOrigin_Requested::Inst            0                       # Table walker requests started/completed, data/inst
system.cpu_cluster.cpus.dtb.walker.walkRequestOrigin_Requested::total            0                       # Table walker requests started/completed, data/inst
system.cpu_cluster.cpus.dtb.walker.walkRequestOrigin_Completed::Data            0                       # Table walker requests started/completed, data/inst
system.cpu_cluster.cpus.dtb.walker.walkRequestOrigin_Completed::Inst            0                       # Table walker requests started/completed, data/inst
system.cpu_cluster.cpus.dtb.walker.walkRequestOrigin_Completed::total            0                       # Table walker requests started/completed, data/inst
system.cpu_cluster.cpus.dtb.walker.walkRequestOrigin::total            0                       # Table walker requests started/completed, data/inst
system.cpu_cluster.cpus.dtb.walker.walks            0                       # Table walker walks requested
system.cpu_cluster.cpus.dtb.write_accesses            0                       # DTB write accesses
system.cpu_cluster.cpus.dtb.write_hits              0                       # DTB write hits
system.cpu_cluster.cpus.dtb.write_misses            0                       # DTB write misses
system.cpu_cluster.cpus.dtb_walker_cache.avg_blocked_cycles::no_mshrs          nan                       # average number of cycles each access was blocked
system.cpu_cluster.cpus.dtb_walker_cache.avg_blocked_cycles::no_targets          nan                       # average number of cycles each access was blocked
system.cpu_cluster.cpus.dtb_walker_cache.blocked::no_mshrs            0                       # number of cycles access was blocked
system.cpu_cluster.cpus.dtb_walker_cache.blocked::no_targets            0                       # number of cycles access was blocked
system.cpu_cluster.cpus.dtb_walker_cache.blocked_cycles::no_mshrs            0                       # number of cycles access was blocked
system.cpu_cluster.cpus.dtb_walker_cache.blocked_cycles::no_targets            0                       # number of cycles access was blocked
system.cpu_cluster.cpus.dtb_walker_cache.pwrStateResidencyTicks::UNDEFINED    535432750                       # Cumulative time (in ticks) in various power states
system.cpu_cluster.cpus.dtb_walker_cache.replacements            0                       # number of replacements
system.cpu_cluster.cpus.dtb_walker_cache.tags.avg_refs          nan                       # Average number of references to valid blocks.
system.cpu_cluster.cpus.dtb_walker_cache.tags.data_accesses            0                       # Number of data accesses
system.cpu_cluster.cpus.dtb_walker_cache.tags.pwrStateResidencyTicks::UNDEFINED    535432750                       # Cumulative time (in ticks) in various power states
system.cpu_cluster.cpus.dtb_walker_cache.tags.sampled_refs            0                       # Sample count of references to valid blocks.
system.cpu_cluster.cpus.dtb_walker_cache.tags.tag_accesses            0                       # Number of tag accesses
system.cpu_cluster.cpus.dtb_walker_cache.tags.tagsinuse            0                       # Cycle average of tags in use
system.cpu_cluster.cpus.dtb_walker_cache.tags.total_refs            0                       # Total number of references to valid blocks.
system.cpu_cluster.cpus.dtb_walker_cache.tags.warmup_cycle            0                       # Cycle when the warmup percentage was hit.
system.cpu_cluster.cpus.fetch2.amo_instructions            0                       # Number of memory atomic instructions successfully decoded
system.cpu_cluster.cpus.fetch2.fp_instructions            0                       # Number of floating point instructions successfully decoded
system.cpu_cluster.cpus.fetch2.int_instructions       951682                       # Number of integer instructions successfully decoded
system.cpu_cluster.cpus.fetch2.load_instructions       946481                       # Number of memory load instructions successfully decoded
system.cpu_cluster.cpus.fetch2.store_instructions       235897                       # Number of memory store instructions successfully decoded
system.cpu_cluster.cpus.fetch2.vec_instructions            0                       # Number of SIMD instructions successfully decoded
system.cpu_cluster.cpus.icache.ReadReq_accesses::.cpu_cluster.cpus.inst       555295                       # number of ReadReq accesses(hits+misses)
system.cpu_cluster.cpus.icache.ReadReq_accesses::total       555295                       # number of ReadReq accesses(hits+misses)
system.cpu_cluster.cpus.icache.ReadReq_avg_miss_latency::.cpu_cluster.cpus.inst 68182.151589                       # average ReadReq miss latency
system.cpu_cluster.cpus.icache.ReadReq_avg_miss_latency::total 68182.151589                       # average ReadReq miss latency
system.cpu_cluster.cpus.icache.ReadReq_avg_mshr_miss_latency::.cpu_cluster.cpus.inst 67932.762836                       # average ReadReq mshr miss latency
system.cpu_cluster.cpus.icache.ReadReq_avg_mshr_miss_latency::total 67932.762836                       # average ReadReq mshr miss latency
system.cpu_cluster.cpus.icache.ReadReq_hits::.cpu_cluster.cpus.inst       554886                       # number of ReadReq hits
system.cpu_cluster.cpus.icache.ReadReq_hits::total       554886                       # number of ReadReq hits
system.cpu_cluster.cpus.icache.ReadReq_miss_latency::.cpu_cluster.cpus.inst     27886500                       # number of ReadReq miss cycles
system.cpu_cluster.cpus.icache.ReadReq_miss_latency::total     27886500                       # number of ReadReq miss cycles
system.cpu_cluster.cpus.icache.ReadReq_miss_rate::.cpu_cluster.cpus.inst     0.000737                       # miss rate for ReadReq accesses
system.cpu_cluster.cpus.icache.ReadReq_miss_rate::total     0.000737                       # miss rate for ReadReq accesses
system.cpu_cluster.cpus.icache.ReadReq_misses::.cpu_cluster.cpus.inst          409                       # number of ReadReq misses
system.cpu_cluster.cpus.icache.ReadReq_misses::total          409                       # number of ReadReq misses
system.cpu_cluster.cpus.icache.ReadReq_mshr_miss_latency::.cpu_cluster.cpus.inst     27784500                       # number of ReadReq MSHR miss cycles
system.cpu_cluster.cpus.icache.ReadReq_mshr_miss_latency::total     27784500                       # number of ReadReq MSHR miss cycles
system.cpu_cluster.cpus.icache.ReadReq_mshr_miss_rate::.cpu_cluster.cpus.inst     0.000737                       # mshr miss rate for ReadReq accesses
system.cpu_cluster.cpus.icache.ReadReq_mshr_miss_rate::total     0.000737                       # mshr miss rate for ReadReq accesses
system.cpu_cluster.cpus.icache.ReadReq_mshr_misses::.cpu_cluster.cpus.inst          409                       # number of ReadReq MSHR misses
system.cpu_cluster.cpus.icache.ReadReq_mshr_misses::total          409                       # number of ReadReq MSHR misses
system.cpu_cluster.cpus.icache.avg_blocked_cycles::no_mshrs          nan                       # average number of cycles each access was blocked
system.cpu_cluster.cpus.icache.avg_blocked_cycles::no_targets          nan                       # average number of cycles each access was blocked
system.cpu_cluster.cpus.icache.blocked::no_mshrs            0                       # number of cycles access was blocked
system.cpu_cluster.cpus.icache.blocked::no_targets            0                       # number of cycles access was blocked
system.cpu_cluster.cpus.icache.blocked_cycles::no_mshrs            0                       # number of cycles access was blocked
system.cpu_cluster.cpus.icache.blocked_cycles::no_targets            0                       # number of cycles access was blocked
system.cpu_cluster.cpus.icache.demand_accesses::.cpu_cluster.cpus.inst       555295                       # number of demand (read+write) accesses
system.cpu_cluster.cpus.icache.demand_accesses::total       555295                       # number of demand (read+write) accesses
system.cpu_cluster.cpus.icache.demand_avg_miss_latency::.cpu_cluster.cpus.inst 68182.151589                       # average overall miss latency
system.cpu_cluster.cpus.icache.demand_avg_miss_latency::total 68182.151589                       # average overall miss latency
system.cpu_cluster.cpus.icache.demand_avg_mshr_miss_latency::.cpu_cluster.cpus.inst 67932.762836                       # average overall mshr miss latency
system.cpu_cluster.cpus.icache.demand_avg_mshr_miss_latency::total 67932.762836                       # average overall mshr miss latency
system.cpu_cluster.cpus.icache.demand_hits::.cpu_cluster.cpus.inst       554886                       # number of demand (read+write) hits
system.cpu_cluster.cpus.icache.demand_hits::total       554886                       # number of demand (read+write) hits
system.cpu_cluster.cpus.icache.demand_miss_latency::.cpu_cluster.cpus.inst     27886500                       # number of demand (read+write) miss cycles
system.cpu_cluster.cpus.icache.demand_miss_latency::total     27886500                       # number of demand (read+write) miss cycles
system.cpu_cluster.cpus.icache.demand_miss_rate::.cpu_cluster.cpus.inst     0.000737                       # miss rate for demand accesses
system.cpu_cluster.cpus.icache.demand_miss_rate::total     0.000737                       # miss rate for demand accesses
system.cpu_cluster.cpus.icache.demand_misses::.cpu_cluster.cpus.inst          409                       # number of demand (read+write) misses
system.cpu_cluster.cpus.icache.demand_misses::total          409                       # number of demand (read+write) misses
system.cpu_cluster.cpus.icache.demand_mshr_miss_latency::.cpu_cluster.cpus.inst     27784500                       # number of demand (read+write) MSHR miss cycles
system.cpu_cluster.cpus.icache.demand_mshr_miss_latency::total     27784500                       # number of demand (read+write) MSHR miss cycles
system.cpu_cluster.cpus.icache.demand_mshr_miss_rate::.cpu_cluster.cpus.inst     0.000737                       # mshr miss rate for demand accesses
system.cpu_cluster.cpus.icache.demand_mshr_miss_rate::total     0.000737                       # mshr miss rate for demand accesses
system.cpu_cluster.cpus.icache.demand_mshr_misses::.cpu_cluster.cpus.inst          409                       # number of demand (read+write) MSHR misses
system.cpu_cluster.cpus.icache.demand_mshr_misses::total          409                       # number of demand (read+write) MSHR misses
system.cpu_cluster.cpus.icache.overall_accesses::.cpu_cluster.cpus.inst       555295                       # number of overall (read+write) accesses
system.cpu_cluster.cpus.icache.overall_accesses::total       555295                       # number of overall (read+write) accesses
system.cpu_cluster.cpus.icache.overall_avg_miss_latency::.cpu_cluster.cpus.inst 68182.151589                       # average overall miss latency
system.cpu_cluster.cpus.icache.overall_avg_miss_latency::total 68182.151589                       # average overall miss latency
system.cpu_cluster.cpus.icache.overall_avg_mshr_miss_latency::.cpu_cluster.cpus.inst 67932.762836                       # average overall mshr miss latency
system.cpu_cluster.cpus.icache.overall_avg_mshr_miss_latency::total 67932.762836                       # average overall mshr miss latency
system.cpu_cluster.cpus.icache.overall_hits::.cpu_cluster.cpus.inst       554886                       # number of overall hits
system.cpu_cluster.cpus.icache.overall_hits::total       554886                       # number of overall hits
system.cpu_cluster.cpus.icache.overall_miss_latency::.cpu_cluster.cpus.inst     27886500                       # number of overall miss cycles
system.cpu_cluster.cpus.icache.overall_miss_latency::total     27886500                       # number of overall miss cycles
system.cpu_cluster.cpus.icache.overall_miss_rate::.cpu_cluster.cpus.inst     0.000737                       # miss rate for overall accesses
system.cpu_cluster.cpus.icache.overall_miss_rate::total     0.000737                       # miss rate for overall accesses
system.cpu_cluster.cpus.icache.overall_misses::.cpu_cluster.cpus.inst          409                       # number of overall misses
system.cpu_cluster.cpus.icache.overall_misses::total          409                       # number of overall misses
system.cpu_cluster.cpus.icache.overall_mshr_miss_latency::.cpu_cluster.cpus.inst     27784500                       # number of overall MSHR miss cycles
system.cpu_cluster.cpus.icache.overall_mshr_miss_latency::total     27784500                       # number of overall MSHR miss cycles
system.cpu_cluster.cpus.icache.overall_mshr_miss_rate::.cpu_cluster.cpus.inst     0.000737                       # mshr miss rate for overall accesses
system.cpu_cluster.cpus.icache.overall_mshr_miss_rate::total     0.000737                       # mshr miss rate for overall accesses
system.cpu_cluster.cpus.icache.overall_mshr_misses::.cpu_cluster.cpus.inst          409                       # number of overall MSHR misses
system.cpu_cluster.cpus.icache.overall_mshr_misses::total          409                       # number of overall MSHR misses
system.cpu_cluster.cpus.icache.pwrStateResidencyTicks::UNDEFINED    535432750                       # Cumulative time (in ticks) in various power states
system.cpu_cluster.cpus.icache.replacements            0                       # number of replacements
system.cpu_cluster.cpus.icache.tags.age_task_id_blocks_1024::0          128                       # Occupied blocks per task id
system.cpu_cluster.cpus.icache.tags.age_task_id_blocks_1024::1           15                       # Occupied blocks per task id
system.cpu_cluster.cpus.icache.tags.age_task_id_blocks_1024::2          265                       # Occupied blocks per task id
system.cpu_cluster.cpus.icache.tags.avg_refs  1361.014706                       # Average number of references to valid blocks.
system.cpu_cluster.cpus.icache.tags.data_accesses      4442768                       # Number of data accesses
system.cpu_cluster.cpus.icache.tags.occ_blocks::.cpu_cluster.cpus.inst   260.845331                       # Average occupied blocks per requestor
system.cpu_cluster.cpus.icache.tags.occ_percent::.cpu_cluster.cpus.inst     0.063683                       # Average percentage of cache occupancy
system.cpu_cluster.cpus.icache.tags.occ_percent::total     0.063683                       # Average percentage of cache occupancy
system.cpu_cluster.cpus.icache.tags.occ_task_id_blocks::1024          408                       # Occupied blocks per task id
system.cpu_cluster.cpus.icache.tags.occ_task_id_percent::1024     0.099609                       # Percentage of cache occupancy per task id
system.cpu_cluster.cpus.icache.tags.pwrStateResidencyTicks::UNDEFINED    535432750                       # Cumulative time (in ticks) in various power states
system.cpu_cluster.cpus.icache.tags.sampled_refs          408                       # Sample count of references to valid blocks.
system.cpu_cluster.cpus.icache.tags.tag_accesses      4442768                       # Number of tag accesses
system.cpu_cluster.cpus.icache.tags.tagsinuse   260.845331                       # Cycle average of tags in use
system.cpu_cluster.cpus.icache.tags.total_refs       555294                       # Total number of references to valid blocks.
system.cpu_cluster.cpus.icache.tags.warmup_cycle        78500                       # Cycle when the warmup percentage was hit.
system.cpu_cluster.cpus.idleCycles             131580                       # Total number of cycles that the object has spent stopped
system.cpu_cluster.cpus.ipc                  0.798676                       # IPC: instructions per cycle
system.cpu_cluster.cpus.istage2_mmu.stage2_tlb.accesses            0                       # DTB accesses
system.cpu_cluster.cpus.istage2_mmu.stage2_tlb.align_faults            0                       # Number of TLB faults due to alignment restrictions
system.cpu_cluster.cpus.istage2_mmu.stage2_tlb.domain_faults            0                       # Number of TLB faults due to domain restrictions
system.cpu_cluster.cpus.istage2_mmu.stage2_tlb.flush_entries            0                       # Number of entries that have been flushed from TLB
system.cpu_cluster.cpus.istage2_mmu.stage2_tlb.flush_tlb            0                       # Number of times complete TLB was flushed
system.cpu_cluster.cpus.istage2_mmu.stage2_tlb.flush_tlb_asid            0                       # Number of times TLB was flushed by ASID
system.cpu_cluster.cpus.istage2_mmu.stage2_tlb.flush_tlb_mva            0                       # Number of times TLB was flushed by MVA
system.cpu_cluster.cpus.istage2_mmu.stage2_tlb.flush_tlb_mva_asid            0                       # Number of times TLB was flushed by MVA & ASID
system.cpu_cluster.cpus.istage2_mmu.stage2_tlb.hits            0                       # DTB hits
system.cpu_cluster.cpus.istage2_mmu.stage2_tlb.inst_accesses            0                       # ITB inst accesses
system.cpu_cluster.cpus.istage2_mmu.stage2_tlb.inst_hits            0                       # ITB inst hits
system.cpu_cluster.cpus.istage2_mmu.stage2_tlb.inst_misses            0                       # ITB inst misses
system.cpu_cluster.cpus.istage2_mmu.stage2_tlb.misses            0                       # DTB misses
system.cpu_cluster.cpus.istage2_mmu.stage2_tlb.perms_faults            0                       # Number of TLB faults due to permissions restrictions
system.cpu_cluster.cpus.istage2_mmu.stage2_tlb.prefetch_faults            0                       # Number of TLB faults due to prefetch
system.cpu_cluster.cpus.istage2_mmu.stage2_tlb.read_accesses            0                       # DTB read accesses
system.cpu_cluster.cpus.istage2_mmu.stage2_tlb.read_hits            0                       # DTB read hits
system.cpu_cluster.cpus.istage2_mmu.stage2_tlb.read_misses            0                       # DTB read misses
system.cpu_cluster.cpus.istage2_mmu.stage2_tlb.walker.pwrStateResidencyTicks::UNDEFINED    535432750                       # Cumulative time (in ticks) in various power states
system.cpu_cluster.cpus.istage2_mmu.stage2_tlb.walker.walkRequestOrigin_Requested::Data            0                       # Table walker requests started/completed, data/inst
system.cpu_cluster.cpus.istage2_mmu.stage2_tlb.walker.walkRequestOrigin_Requested::Inst            0                       # Table walker requests started/completed, data/inst
system.cpu_cluster.cpus.istage2_mmu.stage2_tlb.walker.walkRequestOrigin_Requested::total            0                       # Table walker requests started/completed, data/inst
system.cpu_cluster.cpus.istage2_mmu.stage2_tlb.walker.walkRequestOrigin_Completed::Data            0                       # Table walker requests started/completed, data/inst
system.cpu_cluster.cpus.istage2_mmu.stage2_tlb.walker.walkRequestOrigin_Completed::Inst            0                       # Table walker requests started/completed, data/inst
system.cpu_cluster.cpus.istage2_mmu.stage2_tlb.walker.walkRequestOrigin_Completed::total            0                       # Table walker requests started/completed, data/inst
system.cpu_cluster.cpus.istage2_mmu.stage2_tlb.walker.walkRequestOrigin::total            0                       # Table walker requests started/completed, data/inst
system.cpu_cluster.cpus.istage2_mmu.stage2_tlb.walker.walks            0                       # Table walker walks requested
system.cpu_cluster.cpus.istage2_mmu.stage2_tlb.write_accesses            0                       # DTB write accesses
system.cpu_cluster.cpus.istage2_mmu.stage2_tlb.write_hits            0                       # DTB write hits
system.cpu_cluster.cpus.istage2_mmu.stage2_tlb.write_misses            0                       # DTB write misses
system.cpu_cluster.cpus.itb.accesses                0                       # DTB accesses
system.cpu_cluster.cpus.itb.align_faults            0                       # Number of TLB faults due to alignment restrictions
system.cpu_cluster.cpus.itb.domain_faults            0                       # Number of TLB faults due to domain restrictions
system.cpu_cluster.cpus.itb.flush_entries            0                       # Number of entries that have been flushed from TLB
system.cpu_cluster.cpus.itb.flush_tlb               0                       # Number of times complete TLB was flushed
system.cpu_cluster.cpus.itb.flush_tlb_asid            0                       # Number of times TLB was flushed by ASID
system.cpu_cluster.cpus.itb.flush_tlb_mva            0                       # Number of times TLB was flushed by MVA
system.cpu_cluster.cpus.itb.flush_tlb_mva_asid            0                       # Number of times TLB was flushed by MVA & ASID
system.cpu_cluster.cpus.itb.hits                    0                       # DTB hits
system.cpu_cluster.cpus.itb.inst_accesses            0                       # ITB inst accesses
system.cpu_cluster.cpus.itb.inst_hits               0                       # ITB inst hits
system.cpu_cluster.cpus.itb.inst_misses             0                       # ITB inst misses
system.cpu_cluster.cpus.itb.misses                  0                       # DTB misses
system.cpu_cluster.cpus.itb.perms_faults            0                       # Number of TLB faults due to permissions restrictions
system.cpu_cluster.cpus.itb.prefetch_faults            0                       # Number of TLB faults due to prefetch
system.cpu_cluster.cpus.itb.read_accesses            0                       # DTB read accesses
system.cpu_cluster.cpus.itb.read_hits               0                       # DTB read hits
system.cpu_cluster.cpus.itb.read_misses             0                       # DTB read misses
system.cpu_cluster.cpus.itb.walker.pwrStateResidencyTicks::UNDEFINED    535432750                       # Cumulative time (in ticks) in various power states
system.cpu_cluster.cpus.itb.walker.walkRequestOrigin_Requested::Data            0                       # Table walker requests started/completed, data/inst
system.cpu_cluster.cpus.itb.walker.walkRequestOrigin_Requested::Inst            0                       # Table walker requests started/completed, data/inst
system.cpu_cluster.cpus.itb.walker.walkRequestOrigin_Requested::total            0                       # Table walker requests started/completed, data/inst
system.cpu_cluster.cpus.itb.walker.walkRequestOrigin_Completed::Data            0                       # Table walker requests started/completed, data/inst
system.cpu_cluster.cpus.itb.walker.walkRequestOrigin_Completed::Inst            0                       # Table walker requests started/completed, data/inst
system.cpu_cluster.cpus.itb.walker.walkRequestOrigin_Completed::total            0                       # Table walker requests started/completed, data/inst
system.cpu_cluster.cpus.itb.walker.walkRequestOrigin::total            0                       # Table walker requests started/completed, data/inst
system.cpu_cluster.cpus.itb.walker.walks            0                       # Table walker walks requested
system.cpu_cluster.cpus.itb.write_accesses            0                       # DTB write accesses
system.cpu_cluster.cpus.itb.write_hits              0                       # DTB write hits
system.cpu_cluster.cpus.itb.write_misses            0                       # DTB write misses
system.cpu_cluster.cpus.itb_walker_cache.avg_blocked_cycles::no_mshrs          nan                       # average number of cycles each access was blocked
system.cpu_cluster.cpus.itb_walker_cache.avg_blocked_cycles::no_targets          nan                       # average number of cycles each access was blocked
system.cpu_cluster.cpus.itb_walker_cache.blocked::no_mshrs            0                       # number of cycles access was blocked
system.cpu_cluster.cpus.itb_walker_cache.blocked::no_targets            0                       # number of cycles access was blocked
system.cpu_cluster.cpus.itb_walker_cache.blocked_cycles::no_mshrs            0                       # number of cycles access was blocked
system.cpu_cluster.cpus.itb_walker_cache.blocked_cycles::no_targets            0                       # number of cycles access was blocked
system.cpu_cluster.cpus.itb_walker_cache.pwrStateResidencyTicks::UNDEFINED    535432750                       # Cumulative time (in ticks) in various power states
system.cpu_cluster.cpus.itb_walker_cache.replacements            0                       # number of replacements
system.cpu_cluster.cpus.itb_walker_cache.tags.avg_refs          nan                       # Average number of references to valid blocks.
system.cpu_cluster.cpus.itb_walker_cache.tags.data_accesses            0                       # Number of data accesses
system.cpu_cluster.cpus.itb_walker_cache.tags.pwrStateResidencyTicks::UNDEFINED    535432750                       # Cumulative time (in ticks) in various power states
system.cpu_cluster.cpus.itb_walker_cache.tags.sampled_refs            0                       # Sample count of references to valid blocks.
system.cpu_cluster.cpus.itb_walker_cache.tags.tag_accesses            0                       # Number of tag accesses
system.cpu_cluster.cpus.itb_walker_cache.tags.tagsinuse            0                       # Cycle average of tags in use
system.cpu_cluster.cpus.itb_walker_cache.tags.total_refs            0                       # Total number of references to valid blocks.
system.cpu_cluster.cpus.itb_walker_cache.tags.warmup_cycle            0                       # Cycle when the warmup percentage was hit.
system.cpu_cluster.cpus.numCycles             2141731                       # number of cpu cycles simulated
system.cpu_cluster.cpus.numFetchSuspends            0                       # Number of times Execute suspended instruction fetching
system.cpu_cluster.cpus.numWorkItemsCompleted            0                       # number of work items this cpu completed
system.cpu_cluster.cpus.numWorkItemsStarted            0                       # number of work items this cpu started
system.cpu_cluster.cpus.op_class_0::No_OpClass            0      0.00%      0.00% # Class of committed instruction
system.cpu_cluster.cpus.op_class_0::IntAlu       888269     51.21%     51.21% # Class of committed instruction
system.cpu_cluster.cpus.op_class_0::IntMult           48      0.00%     51.21% # Class of committed instruction
system.cpu_cluster.cpus.op_class_0::IntDiv            0      0.00%     51.21% # Class of committed instruction
system.cpu_cluster.cpus.op_class_0::FloatAdd            0      0.00%     51.21% # Class of committed instruction
system.cpu_cluster.cpus.op_class_0::FloatCmp            0      0.00%     51.21% # Class of committed instruction
system.cpu_cluster.cpus.op_class_0::FloatCvt            0      0.00%     51.21% # Class of committed instruction
system.cpu_cluster.cpus.op_class_0::FloatMult            0      0.00%     51.21% # Class of committed instruction
system.cpu_cluster.cpus.op_class_0::FloatMultAcc            0      0.00%     51.21% # Class of committed instruction
system.cpu_cluster.cpus.op_class_0::FloatDiv            0      0.00%     51.21% # Class of committed instruction
system.cpu_cluster.cpus.op_class_0::FloatMisc            0      0.00%     51.21% # Class of committed instruction
system.cpu_cluster.cpus.op_class_0::FloatSqrt            0      0.00%     51.21% # Class of committed instruction
system.cpu_cluster.cpus.op_class_0::SimdAdd            0      0.00%     51.21% # Class of committed instruction
system.cpu_cluster.cpus.op_class_0::SimdAddAcc            0      0.00%     51.21% # Class of committed instruction
system.cpu_cluster.cpus.op_class_0::SimdAlu            0      0.00%     51.21% # Class of committed instruction
system.cpu_cluster.cpus.op_class_0::SimdCmp            0      0.00%     51.21% # Class of committed instruction
system.cpu_cluster.cpus.op_class_0::SimdCvt            0      0.00%     51.21% # Class of committed instruction
system.cpu_cluster.cpus.op_class_0::SimdMisc            0      0.00%     51.21% # Class of committed instruction
system.cpu_cluster.cpus.op_class_0::SimdMult            0      0.00%     51.21% # Class of committed instruction
system.cpu_cluster.cpus.op_class_0::SimdMultAcc            0      0.00%     51.21% # Class of committed instruction
system.cpu_cluster.cpus.op_class_0::SimdShift            0      0.00%     51.21% # Class of committed instruction
system.cpu_cluster.cpus.op_class_0::SimdShiftAcc            0      0.00%     51.21% # Class of committed instruction
system.cpu_cluster.cpus.op_class_0::SimdDiv            0      0.00%     51.21% # Class of committed instruction
system.cpu_cluster.cpus.op_class_0::SimdSqrt            0      0.00%     51.21% # Class of committed instruction
system.cpu_cluster.cpus.op_class_0::SimdFloatAdd            0      0.00%     51.21% # Class of committed instruction
system.cpu_cluster.cpus.op_class_0::SimdFloatAlu            0      0.00%     51.21% # Class of committed instruction
system.cpu_cluster.cpus.op_class_0::SimdFloatCmp            0      0.00%     51.21% # Class of committed instruction
system.cpu_cluster.cpus.op_class_0::SimdFloatCvt            0      0.00%     51.21% # Class of committed instruction
system.cpu_cluster.cpus.op_class_0::SimdFloatDiv            0      0.00%     51.21% # Class of committed instruction
system.cpu_cluster.cpus.op_class_0::SimdFloatMisc            0      0.00%     51.21% # Class of committed instruction
system.cpu_cluster.cpus.op_class_0::SimdFloatMult            0      0.00%     51.21% # Class of committed instruction
system.cpu_cluster.cpus.op_class_0::SimdFloatMultAcc            0      0.00%     51.21% # Class of committed instruction
system.cpu_cluster.cpus.op_class_0::SimdFloatSqrt            0      0.00%     51.21% # Class of committed instruction
system.cpu_cluster.cpus.op_class_0::SimdReduceAdd            0      0.00%     51.21% # Class of committed instruction
system.cpu_cluster.cpus.op_class_0::SimdReduceAlu            0      0.00%     51.21% # Class of committed instruction
system.cpu_cluster.cpus.op_class_0::SimdReduceCmp            0      0.00%     51.21% # Class of committed instruction
system.cpu_cluster.cpus.op_class_0::SimdFloatReduceAdd            0      0.00%     51.21% # Class of committed instruction
system.cpu_cluster.cpus.op_class_0::SimdFloatReduceCmp            0      0.00%     51.21% # Class of committed instruction
system.cpu_cluster.cpus.op_class_0::SimdAes            0      0.00%     51.21% # Class of committed instruction
system.cpu_cluster.cpus.op_class_0::SimdAesMix            0      0.00%     51.21% # Class of committed instruction
system.cpu_cluster.cpus.op_class_0::SimdSha1Hash            0      0.00%     51.21% # Class of committed instruction
system.cpu_cluster.cpus.op_class_0::SimdSha1Hash2            0      0.00%     51.21% # Class of committed instruction
system.cpu_cluster.cpus.op_class_0::SimdSha256Hash            0      0.00%     51.21% # Class of committed instruction
system.cpu_cluster.cpus.op_class_0::SimdSha256Hash2            0      0.00%     51.21% # Class of committed instruction
system.cpu_cluster.cpus.op_class_0::SimdShaSigma2            0      0.00%     51.21% # Class of committed instruction
system.cpu_cluster.cpus.op_class_0::SimdShaSigma3            0      0.00%     51.21% # Class of committed instruction
system.cpu_cluster.cpus.op_class_0::SimdPredAlu            0      0.00%     51.21% # Class of committed instruction
system.cpu_cluster.cpus.op_class_0::MemRead       658917     37.98%     89.19% # Class of committed instruction
system.cpu_cluster.cpus.op_class_0::MemWrite       187457     10.81%    100.00% # Class of committed instruction
system.cpu_cluster.cpus.op_class_0::FloatMemRead            0      0.00%    100.00% # Class of committed instruction
system.cpu_cluster.cpus.op_class_0::FloatMemWrite            0      0.00%    100.00% # Class of committed instruction
system.cpu_cluster.cpus.op_class_0::IprAccess            0      0.00%    100.00% # Class of committed instruction
system.cpu_cluster.cpus.op_class_0::InstPrefetch            0      0.00%    100.00% # Class of committed instruction
system.cpu_cluster.cpus.op_class_0::total      1734691                       # Class of committed instruction
system.cpu_cluster.cpus.pwrStateResidencyTicks::ON    535432750                       # Cumulative time (in ticks) in various power states
system.cpu_cluster.cpus.tickCycles            2010151                       # Number of cycles that the object actually ticked
system.cpu_cluster.cpus.workload.numSyscalls           11                       # Number of system calls
system.cpu_cluster.l2.ReadExReq_accesses::.cpu_cluster.cpus.data           70                       # number of ReadExReq accesses(hits+misses)
system.cpu_cluster.l2.ReadExReq_accesses::total           70                       # number of ReadExReq accesses(hits+misses)
system.cpu_cluster.l2.ReadExReq_avg_miss_latency::.cpu_cluster.cpus.data 89685.714286                       # average ReadExReq miss latency
system.cpu_cluster.l2.ReadExReq_avg_miss_latency::total 89685.714286                       # average ReadExReq miss latency
system.cpu_cluster.l2.ReadExReq_avg_mshr_miss_latency::.cpu_cluster.cpus.data 88435.714286                       # average ReadExReq mshr miss latency
system.cpu_cluster.l2.ReadExReq_avg_mshr_miss_latency::total 88435.714286                       # average ReadExReq mshr miss latency
system.cpu_cluster.l2.ReadExReq_miss_latency::.cpu_cluster.cpus.data      6278000                       # number of ReadExReq miss cycles
system.cpu_cluster.l2.ReadExReq_miss_latency::total      6278000                       # number of ReadExReq miss cycles
system.cpu_cluster.l2.ReadExReq_miss_rate::.cpu_cluster.cpus.data            1                       # miss rate for ReadExReq accesses
system.cpu_cluster.l2.ReadExReq_miss_rate::total            1                       # miss rate for ReadExReq accesses
system.cpu_cluster.l2.ReadExReq_misses::.cpu_cluster.cpus.data           70                       # number of ReadExReq misses
system.cpu_cluster.l2.ReadExReq_misses::total           70                       # number of ReadExReq misses
system.cpu_cluster.l2.ReadExReq_mshr_miss_latency::.cpu_cluster.cpus.data      6190500                       # number of ReadExReq MSHR miss cycles
system.cpu_cluster.l2.ReadExReq_mshr_miss_latency::total      6190500                       # number of ReadExReq MSHR miss cycles
system.cpu_cluster.l2.ReadExReq_mshr_miss_rate::.cpu_cluster.cpus.data            1                       # mshr miss rate for ReadExReq accesses
system.cpu_cluster.l2.ReadExReq_mshr_miss_rate::total            1                       # mshr miss rate for ReadExReq accesses
system.cpu_cluster.l2.ReadExReq_mshr_misses::.cpu_cluster.cpus.data           70                       # number of ReadExReq MSHR misses
system.cpu_cluster.l2.ReadExReq_mshr_misses::total           70                       # number of ReadExReq MSHR misses
system.cpu_cluster.l2.ReadSharedReq_accesses::.cpu_cluster.cpus.inst          409                       # number of ReadSharedReq accesses(hits+misses)
system.cpu_cluster.l2.ReadSharedReq_accesses::.cpu_cluster.cpus.data           99                       # number of ReadSharedReq accesses(hits+misses)
system.cpu_cluster.l2.ReadSharedReq_accesses::.cpu_cluster.cpus.dcache.prefetcher            4                       # number of ReadSharedReq accesses(hits+misses)
system.cpu_cluster.l2.ReadSharedReq_accesses::total          512                       # number of ReadSharedReq accesses(hits+misses)
system.cpu_cluster.l2.ReadSharedReq_avg_miss_latency::.cpu_cluster.cpus.inst 68380.893300                       # average ReadSharedReq miss latency
system.cpu_cluster.l2.ReadSharedReq_avg_miss_latency::.cpu_cluster.cpus.data 69347.222222                       # average ReadSharedReq miss latency
system.cpu_cluster.l2.ReadSharedReq_avg_miss_latency::.cpu_cluster.cpus.dcache.prefetcher 67561.750000                       # average ReadSharedReq miss latency
system.cpu_cluster.l2.ReadSharedReq_avg_miss_latency::total 68549.289738                       # average ReadSharedReq miss latency
system.cpu_cluster.l2.ReadSharedReq_avg_mshr_miss_latency::.cpu_cluster.cpus.inst 67458.852868                       # average ReadSharedReq mshr miss latency
system.cpu_cluster.l2.ReadSharedReq_avg_mshr_miss_latency::.cpu_cluster.cpus.data 68400.568182                       # average ReadSharedReq mshr miss latency
system.cpu_cluster.l2.ReadSharedReq_avg_mshr_miss_latency::.cpu_cluster.cpus.dcache.prefetcher 66311.750000                       # average ReadSharedReq mshr miss latency
system.cpu_cluster.l2.ReadSharedReq_avg_mshr_miss_latency::total 67617.640974                       # average ReadSharedReq mshr miss latency
system.cpu_cluster.l2.ReadSharedReq_hits::.cpu_cluster.cpus.inst            6                       # number of ReadSharedReq hits
system.cpu_cluster.l2.ReadSharedReq_hits::.cpu_cluster.cpus.data            9                       # number of ReadSharedReq hits
system.cpu_cluster.l2.ReadSharedReq_hits::total           15                       # number of ReadSharedReq hits
system.cpu_cluster.l2.ReadSharedReq_miss_latency::.cpu_cluster.cpus.inst     27557500                       # number of ReadSharedReq miss cycles
system.cpu_cluster.l2.ReadSharedReq_miss_latency::.cpu_cluster.cpus.data      6241250                       # number of ReadSharedReq miss cycles
system.cpu_cluster.l2.ReadSharedReq_miss_latency::.cpu_cluster.cpus.dcache.prefetcher       270247                       # number of ReadSharedReq miss cycles
system.cpu_cluster.l2.ReadSharedReq_miss_latency::total     34068997                       # number of ReadSharedReq miss cycles
system.cpu_cluster.l2.ReadSharedReq_miss_rate::.cpu_cluster.cpus.inst     0.985330                       # miss rate for ReadSharedReq accesses
system.cpu_cluster.l2.ReadSharedReq_miss_rate::.cpu_cluster.cpus.data     0.909091                       # miss rate for ReadSharedReq accesses
system.cpu_cluster.l2.ReadSharedReq_miss_rate::.cpu_cluster.cpus.dcache.prefetcher            1                       # miss rate for ReadSharedReq accesses
system.cpu_cluster.l2.ReadSharedReq_miss_rate::total     0.970703                       # miss rate for ReadSharedReq accesses
system.cpu_cluster.l2.ReadSharedReq_misses::.cpu_cluster.cpus.inst          403                       # number of ReadSharedReq misses
system.cpu_cluster.l2.ReadSharedReq_misses::.cpu_cluster.cpus.data           90                       # number of ReadSharedReq misses
system.cpu_cluster.l2.ReadSharedReq_misses::.cpu_cluster.cpus.dcache.prefetcher            4                       # number of ReadSharedReq misses
system.cpu_cluster.l2.ReadSharedReq_misses::total          497                       # number of ReadSharedReq misses
system.cpu_cluster.l2.ReadSharedReq_mshr_hits::.cpu_cluster.cpus.inst            2                       # number of ReadSharedReq MSHR hits
system.cpu_cluster.l2.ReadSharedReq_mshr_hits::.cpu_cluster.cpus.data            2                       # number of ReadSharedReq MSHR hits
system.cpu_cluster.l2.ReadSharedReq_mshr_hits::total            4                       # number of ReadSharedReq MSHR hits
system.cpu_cluster.l2.ReadSharedReq_mshr_miss_latency::.cpu_cluster.cpus.inst     27051000                       # number of ReadSharedReq MSHR miss cycles
system.cpu_cluster.l2.ReadSharedReq_mshr_miss_latency::.cpu_cluster.cpus.data      6019250                       # number of ReadSharedReq MSHR miss cycles
system.cpu_cluster.l2.ReadSharedReq_mshr_miss_latency::.cpu_cluster.cpus.dcache.prefetcher       265247                       # number of ReadSharedReq MSHR miss cycles
system.cpu_cluster.l2.ReadSharedReq_mshr_miss_latency::total     33335497                       # number of ReadSharedReq MSHR miss cycles
system.cpu_cluster.l2.ReadSharedReq_mshr_miss_rate::.cpu_cluster.cpus.inst     0.980440                       # mshr miss rate for ReadSharedReq accesses
system.cpu_cluster.l2.ReadSharedReq_mshr_miss_rate::.cpu_cluster.cpus.data     0.888889                       # mshr miss rate for ReadSharedReq accesses
system.cpu_cluster.l2.ReadSharedReq_mshr_miss_rate::.cpu_cluster.cpus.dcache.prefetcher            1                       # mshr miss rate for ReadSharedReq accesses
system.cpu_cluster.l2.ReadSharedReq_mshr_miss_rate::total     0.962891                       # mshr miss rate for ReadSharedReq accesses
system.cpu_cluster.l2.ReadSharedReq_mshr_misses::.cpu_cluster.cpus.inst          401                       # number of ReadSharedReq MSHR misses
system.cpu_cluster.l2.ReadSharedReq_mshr_misses::.cpu_cluster.cpus.data           88                       # number of ReadSharedReq MSHR misses
system.cpu_cluster.l2.ReadSharedReq_mshr_misses::.cpu_cluster.cpus.dcache.prefetcher            4                       # number of ReadSharedReq MSHR misses
system.cpu_cluster.l2.ReadSharedReq_mshr_misses::total          493                       # number of ReadSharedReq MSHR misses
system.cpu_cluster.l2.avg_blocked_cycles::no_mshrs          nan                       # average number of cycles each access was blocked
system.cpu_cluster.l2.avg_blocked_cycles::no_targets          nan                       # average number of cycles each access was blocked
system.cpu_cluster.l2.blocked::no_mshrs             0                       # number of cycles access was blocked
system.cpu_cluster.l2.blocked::no_targets            0                       # number of cycles access was blocked
system.cpu_cluster.l2.blocked_cycles::no_mshrs            0                       # number of cycles access was blocked
system.cpu_cluster.l2.blocked_cycles::no_targets            0                       # number of cycles access was blocked
system.cpu_cluster.l2.demand_accesses::.cpu_cluster.cpus.inst          409                       # number of demand (read+write) accesses
system.cpu_cluster.l2.demand_accesses::.cpu_cluster.cpus.data          169                       # number of demand (read+write) accesses
system.cpu_cluster.l2.demand_accesses::.cpu_cluster.cpus.dcache.prefetcher            4                       # number of demand (read+write) accesses
system.cpu_cluster.l2.demand_accesses::total          582                       # number of demand (read+write) accesses
system.cpu_cluster.l2.demand_avg_miss_latency::.cpu_cluster.cpus.inst 68380.893300                       # average overall miss latency
system.cpu_cluster.l2.demand_avg_miss_latency::.cpu_cluster.cpus.data 78245.312500                       # average overall miss latency
system.cpu_cluster.l2.demand_avg_miss_latency::.cpu_cluster.cpus.dcache.prefetcher 67561.750000                       # average overall miss latency
system.cpu_cluster.l2.demand_avg_miss_latency::total 71158.724868                       # average overall miss latency
system.cpu_cluster.l2.demand_avg_mshr_miss_latency::.cpu_cluster.cpus.inst 67458.852868                       # average overall mshr miss latency
system.cpu_cluster.l2.demand_avg_mshr_miss_latency::.cpu_cluster.cpus.data 77276.898734                       # average overall mshr miss latency
system.cpu_cluster.l2.demand_avg_mshr_miss_latency::.cpu_cluster.cpus.dcache.prefetcher 66311.750000                       # average overall mshr miss latency
system.cpu_cluster.l2.demand_avg_mshr_miss_latency::total 70206.033748                       # average overall mshr miss latency
system.cpu_cluster.l2.demand_hits::.cpu_cluster.cpus.inst            6                       # number of demand (read+write) hits
system.cpu_cluster.l2.demand_hits::.cpu_cluster.cpus.data            9                       # number of demand (read+write) hits
system.cpu_cluster.l2.demand_hits::total           15                       # number of demand (read+write) hits
system.cpu_cluster.l2.demand_miss_latency::.cpu_cluster.cpus.inst     27557500                       # number of demand (read+write) miss cycles
system.cpu_cluster.l2.demand_miss_latency::.cpu_cluster.cpus.data     12519250                       # number of demand (read+write) miss cycles
system.cpu_cluster.l2.demand_miss_latency::.cpu_cluster.cpus.dcache.prefetcher       270247                       # number of demand (read+write) miss cycles
system.cpu_cluster.l2.demand_miss_latency::total     40346997                       # number of demand (read+write) miss cycles
system.cpu_cluster.l2.demand_miss_rate::.cpu_cluster.cpus.inst     0.985330                       # miss rate for demand accesses
system.cpu_cluster.l2.demand_miss_rate::.cpu_cluster.cpus.data     0.946746                       # miss rate for demand accesses
system.cpu_cluster.l2.demand_miss_rate::.cpu_cluster.cpus.dcache.prefetcher            1                       # miss rate for demand accesses
system.cpu_cluster.l2.demand_miss_rate::total     0.974227                       # miss rate for demand accesses
system.cpu_cluster.l2.demand_misses::.cpu_cluster.cpus.inst          403                       # number of demand (read+write) misses
system.cpu_cluster.l2.demand_misses::.cpu_cluster.cpus.data          160                       # number of demand (read+write) misses
system.cpu_cluster.l2.demand_misses::.cpu_cluster.cpus.dcache.prefetcher            4                       # number of demand (read+write) misses
system.cpu_cluster.l2.demand_misses::total          567                       # number of demand (read+write) misses
system.cpu_cluster.l2.demand_mshr_hits::.cpu_cluster.cpus.inst            2                       # number of demand (read+write) MSHR hits
system.cpu_cluster.l2.demand_mshr_hits::.cpu_cluster.cpus.data            2                       # number of demand (read+write) MSHR hits
system.cpu_cluster.l2.demand_mshr_hits::total            4                       # number of demand (read+write) MSHR hits
system.cpu_cluster.l2.demand_mshr_miss_latency::.cpu_cluster.cpus.inst     27051000                       # number of demand (read+write) MSHR miss cycles
system.cpu_cluster.l2.demand_mshr_miss_latency::.cpu_cluster.cpus.data     12209750                       # number of demand (read+write) MSHR miss cycles
system.cpu_cluster.l2.demand_mshr_miss_latency::.cpu_cluster.cpus.dcache.prefetcher       265247                       # number of demand (read+write) MSHR miss cycles
system.cpu_cluster.l2.demand_mshr_miss_latency::total     39525997                       # number of demand (read+write) MSHR miss cycles
system.cpu_cluster.l2.demand_mshr_miss_rate::.cpu_cluster.cpus.inst     0.980440                       # mshr miss rate for demand accesses
system.cpu_cluster.l2.demand_mshr_miss_rate::.cpu_cluster.cpus.data     0.934911                       # mshr miss rate for demand accesses
system.cpu_cluster.l2.demand_mshr_miss_rate::.cpu_cluster.cpus.dcache.prefetcher            1                       # mshr miss rate for demand accesses
system.cpu_cluster.l2.demand_mshr_miss_rate::total     0.967354                       # mshr miss rate for demand accesses
system.cpu_cluster.l2.demand_mshr_misses::.cpu_cluster.cpus.inst          401                       # number of demand (read+write) MSHR misses
system.cpu_cluster.l2.demand_mshr_misses::.cpu_cluster.cpus.data          158                       # number of demand (read+write) MSHR misses
[...]
system.mem_ctrls1.readPktSize::2                    0                       # Read request sizes (log2)
system.mem_ctrls1.readPktSize::3                    0                       # Read request sizes (log2)
system.mem_ctrls1.readPktSize::4                    0                       # Read request sizes (log2)
system.mem_ctrls1.readPktSize::5                    0                       # Read request sizes (log2)
system.mem_ctrls1.readPktSize::6                  281                       # Read request sizes (log2)
system.mem_ctrls1.readReqs                        281                       # Number of read requests accepted
system.mem_ctrls1.readRowHitRate                72.95                       # Row buffer hit rate for reads
system.mem_ctrls1.readRowHits                     205                       # Number of row buffer hits during reads
system.mem_ctrls1.servicedByWrQ                     0                       # Number of DRAM read bursts serviced by the write queue
system.mem_ctrls1.totBusLat                   1405000                       # Total ticks spent in databus transfers
system.mem_ctrls1.totGap                    535280000                       # Total gap between requests
system.mem_ctrls1.totMemAccLat               10220750                       # Total ticks spent from burst creation until serviced by the DRAM
system.mem_ctrls1.totQLat                     4952000                       # Total ticks spent queuing
system.mem_ctrls1.wrQLenPdf::0                      0                       # What write queue length does an incoming req see
system.mem_ctrls1.wrQLenPdf::1                      0                       # What write queue length does an incoming req see
system.mem_ctrls1.wrQLenPdf::2                      0                       # What write queue length does an incoming req see
system.mem_ctrls1.wrQLenPdf::3                      0                       # What write queue length does an incoming req see
system.mem_ctrls1.wrQLenPdf::4                      0                       # What write queue length does an incoming req see
system.mem_ctrls1.wrQLenPdf::5                      0                       # What write queue length does an incoming req see
system.mem_ctrls1.wrQLenPdf::6                      0                       # What write queue length does an incoming req see
system.mem_ctrls1.wrQLenPdf::7                      0                       # What write queue length does an incoming req see
system.mem_ctrls1.wrQLenPdf::8                      0                       # What write queue length does an incoming req see
system.mem_ctrls1.wrQLenPdf::9                      0                       # What write queue length does an incoming req see
system.mem_ctrls1.wrQLenPdf::10                     0                       # What write queue length does an incoming req see
system.mem_ctrls1.wrQLenPdf::11                     0                       # What write queue length does an incoming req see
system.mem_ctrls1.wrQLenPdf::12                     0                       # What write queue length does an incoming req see
system.mem_ctrls1.wrQLenPdf::13                     0                       # What write queue length does an incoming req see
system.mem_ctrls1.wrQLenPdf::14                     0                       # What write queue length does an incoming req see
system.mem_ctrls1.wrQLenPdf::15                     0                       # What write queue length does an incoming req see
system.mem_ctrls1.wrQLenPdf::16                     0                       # What write queue length does an incoming req see
system.mem_ctrls1.wrQLenPdf::17                     0                       # What write queue length does an incoming req see
system.mem_ctrls1.wrQLenPdf::18                     0                       # What write queue length does an incoming req see
system.mem_ctrls1.wrQLenPdf::19                     0                       # What write queue length does an incoming req see
system.mem_ctrls1.wrQLenPdf::20                     0                       # What write queue length does an incoming req see
system.mem_ctrls1.wrQLenPdf::21                     0                       # What write queue length does an incoming req see
system.mem_ctrls1.wrQLenPdf::22                     0                       # What write queue length does an incoming req see
system.mem_ctrls1.wrQLenPdf::23                     0                       # What write queue length does an incoming req see
system.mem_ctrls1.wrQLenPdf::24                     0                       # What write queue length does an incoming req see
system.mem_ctrls1.wrQLenPdf::25                     0                       # What write queue length does an incoming req see
system.mem_ctrls1.wrQLenPdf::26                     0                       # What write queue length does an incoming req see
system.mem_ctrls1.wrQLenPdf::27                     0                       # What write queue length does an incoming req see
system.mem_ctrls1.wrQLenPdf::28                     0                       # What write queue length does an incoming req see
system.mem_ctrls1.wrQLenPdf::29                     0                       # What write queue length does an incoming req see
system.mem_ctrls1.wrQLenPdf::30                     0                       # What write queue length does an incoming req see
system.mem_ctrls1.wrQLenPdf::31                     0                       # What write queue length does an incoming req see
system.mem_ctrls1.wrQLenPdf::32                     0                       # What write queue length does an incoming req see
system.mem_ctrls1.wrQLenPdf::33                     0                       # What write queue length does an incoming req see
system.mem_ctrls1.wrQLenPdf::34                     0                       # What write queue length does an incoming req see
system.mem_ctrls1.wrQLenPdf::35                     0                       # What write queue length does an incoming req see
system.mem_ctrls1.wrQLenPdf::36                     0                       # What write queue length does an incoming req see
system.mem_ctrls1.wrQLenPdf::37                     0                       # What write queue length does an incoming req see
system.mem_ctrls1.wrQLenPdf::38                     0                       # What write queue length does an incoming req see
system.mem_ctrls1.wrQLenPdf::39                     0                       # What write queue length does an incoming req see
system.mem_ctrls1.wrQLenPdf::40                     0                       # What write queue length does an incoming req see
system.mem_ctrls1.wrQLenPdf::41                     0                       # What write queue length does an incoming req see
system.mem_ctrls1.wrQLenPdf::42                     0                       # What write queue length does an incoming req see
system.mem_ctrls1.wrQLenPdf::43                     0                       # What write queue length does an incoming req see
system.mem_ctrls1.wrQLenPdf::44                     0                       # What write queue length does an incoming req see
system.mem_ctrls1.wrQLenPdf::45                     0                       # What write queue length does an incoming req see
system.mem_ctrls1.wrQLenPdf::46                     0                       # What write queue length does an incoming req see
system.mem_ctrls1.wrQLenPdf::47                     0                       # What write queue length does an incoming req see
system.mem_ctrls1.wrQLenPdf::48                     0                       # What write queue length does an incoming req see
system.mem_ctrls1.wrQLenPdf::49                     0                       # What write queue length does an incoming req see
system.mem_ctrls1.wrQLenPdf::50                     0                       # What write queue length does an incoming req see
system.mem_ctrls1.wrQLenPdf::51                     0                       # What write queue length does an incoming req see
system.mem_ctrls1.wrQLenPdf::52                     0                       # What write queue length does an incoming req see
system.mem_ctrls1.wrQLenPdf::53                     0                       # What write queue length does an incoming req see
system.mem_ctrls1.wrQLenPdf::54                     0                       # What write queue length does an incoming req see
system.mem_ctrls1.wrQLenPdf::55                     0                       # What write queue length does an incoming req see
system.mem_ctrls1.wrQLenPdf::56                     0                       # What write queue length does an incoming req see
system.mem_ctrls1.wrQLenPdf::57                     0                       # What write queue length does an incoming req see
system.mem_ctrls1.wrQLenPdf::58                     0                       # What write queue length does an incoming req see
system.mem_ctrls1.wrQLenPdf::59                     0                       # What write queue length does an incoming req see
system.mem_ctrls1.wrQLenPdf::60                     0                       # What write queue length does an incoming req see
system.mem_ctrls1.wrQLenPdf::61                     0                       # What write queue length does an incoming req see
system.mem_ctrls1.wrQLenPdf::62                     0                       # What write queue length does an incoming req see
system.mem_ctrls1.wrQLenPdf::63                     0                       # What write queue length does an incoming req see
system.mem_ctrls1.writeBursts                       0                       # Number of DRAM write bursts, including those merged in the write queue
system.mem_ctrls1.writePktSize::0                   0                       # Write request sizes (log2)
system.mem_ctrls1.writePktSize::1                   0                       # Write request sizes (log2)
system.mem_ctrls1.writePktSize::2                   0                       # Write request sizes (log2)
system.mem_ctrls1.writePktSize::3                   0                       # Write request sizes (log2)
system.mem_ctrls1.writePktSize::4                   0                       # Write request sizes (log2)
system.mem_ctrls1.writePktSize::5                   0                       # Write request sizes (log2)
system.mem_ctrls1.writePktSize::6                   0                       # Write request sizes (log2)
system.mem_ctrls1.writeReqs                         0                       # Number of write requests accepted
system.mem_ctrls1.writeRowHitRate                 nan                       # Row buffer hit rate for writes
system.mem_ctrls1.writeRowHits                      0                       # Number of row buffer hits during writes
system.mem_ctrls1_0.actBackEnergy             3416580                       # Energy for active background per rank (pJ)
system.mem_ctrls1_0.actEnergy                  349860                       # Energy for activate commands per rank (pJ)
system.mem_ctrls1_0.actPowerDownEnergy       11403990                       # Energy for active power-down per rank (pJ)
system.mem_ctrls1_0.averagePower           266.761708                       # Core power per rank (mW)
system.mem_ctrls1_0.memoryStateTime::IDLE       304000                       # Time in different power states
system.mem_ctrls1_0.memoryStateTime::REF      1300000                       # Time in different power states
system.mem_ctrls1_0.memoryStateTime::SREF    491082750                       # Time in different power states
system.mem_ctrls1_0.memoryStateTime::PRE_PDN     11379250                       # Time in different power states
system.mem_ctrls1_0.memoryStateTime::ACT      6356750                       # Time in different power states
system.mem_ctrls1_0.memoryStateTime::ACT_PDN     25010000                       # Time in different power states
system.mem_ctrls1_0.preBackEnergy              180960                       # Energy for precharge background per rank (pJ)
system.mem_ctrls1_0.preEnergy                  163185                       # Energy for precharge commands per rank (pJ)
system.mem_ctrls1_0.prePowerDownEnergy        4369440                       # Energy for precharge power-down per rank (pJ)
system.mem_ctrls1_0.readEnergy                1463700                       # Energy for read commands per rank (pJ)
system.mem_ctrls1_0.refreshEnergy        3073200.000000                       # Energy for refresh commands per rank (pJ)
system.mem_ctrls1_0.selfRefreshEnergy       118412040                       # Energy for self refresh per rank (pJ)
system.mem_ctrls1_0.totalEnergy             142832955                       # Total energy per rank (pJ)
system.mem_ctrls1_0.totalIdleTime           527375500                       # Total Idle time Per DRAM Rank
system.mem_ctrls1_0.writeEnergy                     0                       # Energy for write commands per rank (pJ)
system.mem_ctrls1_1.actBackEnergy             1730520                       # Energy for active background per rank (pJ)
system.mem_ctrls1_1.actEnergy                  192780                       # Energy for activate commands per rank (pJ)
system.mem_ctrls1_1.actPowerDownEnergy       16340760                       # Energy for active power-down per rank (pJ)
system.mem_ctrls1_1.averagePower           268.427155                       # Core power per rank (mW)
system.mem_ctrls1_1.memoryStateTime::IDLE       390000                       # Time in different power states
system.mem_ctrls1_1.memoryStateTime::REF      1560000                       # Time in different power states
system.mem_ctrls1_1.memoryStateTime::SREF    484787500                       # Time in different power states
system.mem_ctrls1_1.memoryStateTime::PRE_PDN     10472750                       # Time in different power states
system.mem_ctrls1_1.memoryStateTime::ACT      2396250                       # Time in different power states
system.mem_ctrls1_1.memoryStateTime::ACT_PDN     35826250                       # Time in different power states
system.mem_ctrls1_1.preBackEnergy              208800                       # Energy for precharge background per rank (pJ)
system.mem_ctrls1_1.preEnergy                   98670                       # Energy for precharge commands per rank (pJ)
system.mem_ctrls1_1.prePowerDownEnergy        4021440                       # Energy for precharge power-down per rank (pJ)
system.mem_ctrls1_1.readEnergy                 542640                       # Energy for read commands per rank (pJ)
system.mem_ctrls1_1.refreshEnergy        3687840.000000                       # Energy for refresh commands per rank (pJ)
system.mem_ctrls1_1.selfRefreshEnergy       116901240                       # Energy for self refresh per rank (pJ)
system.mem_ctrls1_1.totalEnergy             143724690                       # Total energy per rank (pJ)
system.mem_ctrls1_1.totalIdleTime           528611500                       # Total Idle time Per DRAM Rank
system.mem_ctrls1_1.writeEnergy                     0                       # Energy for write commands per rank (pJ)
system.membus.pkt_count_system.cpu_cluster.l2.mem_side::system.mem_ctrls0.port          562                       # Packet count per connected master and slave (bytes)
system.membus.pkt_count_system.cpu_cluster.l2.mem_side::system.mem_ctrls1.port          562                       # Packet count per connected master and slave (bytes)
system.membus.pkt_count_system.cpu_cluster.l2.mem_side::total         1124                       # Packet count per connected master and slave (bytes)
system.membus.pkt_count::total                   1124                       # Packet count per connected master and slave (bytes)
system.membus.pkt_size_system.cpu_cluster.l2.mem_side::system.mem_ctrls0.port        17984                       # Cumulative packet size per connected master and slave (bytes)
system.membus.pkt_size_system.cpu_cluster.l2.mem_side::system.mem_ctrls1.port        17984                       # Cumulative packet size per connected master and slave (bytes)
system.membus.pkt_size_system.cpu_cluster.l2.mem_side::total        35968                       # Cumulative packet size per connected master and slave (bytes)
system.membus.pkt_size::total                   35968                       # Cumulative packet size per connected master and slave (bytes)
system.membus.pwrStateResidencyTicks::UNDEFINED    535432750                       # Cumulative time (in ticks) in various power states
system.membus.reqLayer0.occupancy              336752                       # Layer occupancy (ticks)
system.membus.reqLayer0.utilization               0.1                       # Layer utilization (%)
system.membus.reqLayer1.occupancy              344251                       # Layer occupancy (ticks)
system.membus.reqLayer1.utilization               0.1                       # Layer utilization (%)
system.membus.respLayer1.occupancy            2990250                       # Layer occupancy (ticks)
system.membus.respLayer1.utilization              0.6                       # Layer utilization (%)
system.membus.snoopTraffic                          0                       # Total snoop traffic (bytes)
system.membus.snoop_fanout::samples               562                       # Request fanout histogram
system.membus.snoop_fanout::mean                    0                       # Request fanout histogram
system.membus.snoop_fanout::stdev                   0                       # Request fanout histogram
system.membus.snoop_fanout::underflows              0      0.00%      0.00% # Request fanout histogram
system.membus.snoop_fanout::0                     562    100.00%    100.00% # Request fanout histogram
system.membus.snoop_fanout::1                       0      0.00%    100.00% # Request fanout histogram
system.membus.snoop_fanout::overflows               0      0.00%    100.00% # Request fanout histogram
system.membus.snoop_fanout::min_value               0                       # Request fanout histogram
system.membus.snoop_fanout::max_value               0                       # Request fanout histogram
system.membus.snoop_fanout::total                 562                       # Request fanout histogram
system.membus.snoop_filter.hit_multi_requests            0                       # Number of requests hitting in the snoop filter with multiple (>1) holders of the requested data.
system.membus.snoop_filter.hit_multi_snoops            0                       # Number of snoops hitting in the snoop filter with multiple (>1) holders of the requested data.
system.membus.snoop_filter.hit_single_requests            0                       # Number of requests hitting in the snoop filter with a single holder of the requested data.
system.membus.snoop_filter.hit_single_snoops            0                       # Number of snoops hitting in the snoop filter with a single holder of the requested data.
system.membus.snoop_filter.tot_requests           562                       # Total number of requests made to the snoop filter.
system.membus.snoop_filter.tot_snoops               0                       # Total number of snoops made to the snoop filter.
system.membus.snoops                                0                       # Total snoops (count)
system.membus.trans_dist::ReadResp                492                       # Transaction distribution
system.membus.trans_dist::ReadExReq                70                       # Transaction distribution
system.membus.trans_dist::ReadExResp               70                       # Transaction distribution
system.membus.trans_dist::ReadSharedReq           492                       # Transaction distribution
system.voltage_domain.voltage                3.300000                       # Voltage in Volts

---------- End Simulation Statistics   ----------
