
---------- Begin Simulation Statistics ----------
final_tick                                  525493750                       # Number of ticks from beginning of simulation (restored from checkpoints and never reset)
host_inst_rate                                 264142                       # Simulator instruction rate (inst/s)
host_mem_usage                                2254700                       # Number of bytes of host memory used
host_op_rate                                   267867                       # Simulator op (including micro ops) rate (op/s)
host_seconds                                     6.48                       # Real time elapsed on the host
host_tick_rate                               81142221                       # Simulator tick rate (ticks/s)
sim_freq                                 1000000000000                       # Frequency of simulated ticks
sim_insts                                     1710608                       # Number of instructions simulated
sim_ops                                       1734758                       # Number of ops (including micro ops) simulated
sim_seconds                                  0.000525                       # Number of seconds simulated
sim_ticks                                   525493750                       # Number of ticks simulated
system.clk_domain.clock                          1000                       # Clock period in ticks
system.cpu_cluster.clk_domain.clock               250                       # Clock period in ticks
system.cpu_cluster.cpus.branchPred.BTBCorrect            0                       # Number of correct BTB predictions (this stat may not work properly.
system.cpu_cluster.cpus.branchPred.BTBHitPct    99.279244                       # BTB Hit Percentage
system.cpu_cluster.cpus.branchPred.BTBHits       135677                       # Number of BTB hits
system.cpu_cluster.cpus.branchPred.BTBLookups       136662                       # Number of BTB lookups
system.cpu_cluster.cpus.branchPred.BTBMisses          985                       # Number of BTB misses
system.cpu_cluster.cpus.branchPred.BTBMissesPct     0.720756                       # BTB Miss Percentage
system.cpu_cluster.cpus.branchPred.RASInCorrect            0                       # Number of incorrect RAS predictions.
system.cpu_cluster.cpus.branchPred.condIncorrect        36322                       # Number of conditional branches incorrect
system.cpu_cluster.cpus.branchPred.condPredicted       256382                       # Number of conditional branches predicted
system.cpu_cluster.cpus.branchPred.indirectHits           16                       # Number of indirect target hits.
system.cpu_cluster.cpus.branchPred.indirectLookups          145                       # Number of indirect predictor lookups.
system.cpu_cluster.cpus.branchPred.indirectMisses          129                       # Number of indirect misses.
system.cpu_cluster.cpus.branchPred.lookups       283699                       # Number of BP lookups
system.cpu_cluster.cpus.branchPred.usedRAS         9685                       # Number of times the RAS was used to get a target.
system.cpu_cluster.cpus.branchPredindirectMispredicted           58                       # Number of mispredicted indirect branches.
system.cpu_cluster.cpus.committedInsts        1710608                       # Number of instructions committed
system.cpu_cluster.cpus.committedOps          1734758                       # Number of ops (including micro ops) committed
system.cpu_cluster.cpus.cpi                  1.228788                       # CPI: cycles per instruction
system.cpu_cluster.cpus.dcache.HardPFReq_avg_mshr_miss_latency::.cpu_cluster.cpus.dcache.prefetcher 67811.750000                       # average HardPFReq mshr miss latency
system.cpu_cluster.cpus.dcache.HardPFReq_avg_mshr_miss_latency::total 67811.750000                       # average HardPFReq mshr miss latency
system.cpu_cluster.cpus.dcache.HardPFReq_mshr_miss_latency::.cpu_cluster.cpus.dcache.prefetcher       271247                       # number of HardPFReq MSHR miss cycles
system.cpu_cluster.cpus.dcache.HardPFReq_mshr_miss_latency::total       271247                       # number of HardPFReq MSHR miss cycles
system.cpu_cluster.cpus.dcache.HardPFReq_mshr_miss_rate::.cpu_cluster.cpus.dcache.prefetcher          inf                       # mshr miss rate for HardPFReq accesses
system.cpu_cluster.cpus.dcache.HardPFReq_mshr_miss_rate::total          inf                       # mshr miss rate for HardPFReq accesses
system.cpu_cluster.cpus.dcache.HardPFReq_mshr_misses::.cpu_cluster.cpus.dcache.prefetcher            4                       # number of HardPFReq MSHR misses
system.cpu_cluster.cpus.dcache.HardPFReq_mshr_misses::total            4                       # number of HardPFReq MSHR misses
system.cpu_cluster.cpus.dcache.LoadLockedReq_accesses::.cpu_cluster.cpus.data           18                       # number of LoadLockedReq accesses(hits+misses)
system.cpu_cluster.cpus.dcache.LoadLockedReq_accesses::total           18                       # number of LoadLockedReq accesses(hits+misses)
system.cpu_cluster.cpus.dcache.LoadLockedReq_hits::.cpu_cluster.cpus.data           18                       # number of LoadLockedReq hits
system.cpu_cluster.cpus.dcache.LoadLockedReq_hits::total           18                       # number of LoadLockedReq hits
system.cpu_cluster.cpus.dcache.ReadReq_accesses::.cpu_cluster.cpus.data       705102                       # number of ReadReq accesses(hits+misses)
system.cpu_cluster.cpus.dcache.ReadReq_accesses::total       705102                       # number of ReadReq accesses(hits+misses)
system.cpu_cluster.cpus.dcache.ReadReq_avg_miss_latency::.cpu_cluster.cpus.data 63614.795918                       # average ReadReq miss latency
system.cpu_cluster.cpus.dcache.ReadReq_avg_miss_latency::total 63614.795918                       # average ReadReq miss latency
system.cpu_cluster.cpus.dcache.ReadReq_avg_mshr_miss_latency::.cpu_cluster.cpus.data 64082.417582                       # average ReadReq mshr miss latency
system.cpu_cluster.cpus.dcache.ReadReq_avg_mshr_miss_latency::total 64082.417582                       # average ReadReq mshr miss latency
system.cpu_cluster.cpus.dcache.ReadReq_hits::.cpu_cluster.cpus.data       705004                       # number of ReadReq hits
system.cpu_cluster.cpus.dcache.ReadReq_hits::total       705004                       # number of ReadReq hits
system.cpu_cluster.cpus.dcache.ReadReq_miss_latency::.cpu_cluster.cpus.data      6234250                       # number of ReadReq miss cycles
system.cpu_cluster.cpus.dcache.ReadReq_miss_latency::total      6234250                       # number of ReadReq miss cycles
system.cpu_cluster.cpus.dcache.ReadReq_miss_rate::.cpu_cluster.cpus.data     0.000139                       # miss rate for ReadReq accesses
system.cpu_cluster.cpus.dcache.ReadReq_miss_rate::total     0.000139                       # miss rate for ReadReq accesses
system.cpu_cluster.cpus.dcache.ReadReq_misses::.cpu_cluster.cpus.data           98                       # number of ReadReq misses
system.cpu_cluster.cpus.dcache.ReadReq_misses::total           98                       # number of ReadReq misses
system.cpu_cluster.cpus.dcache.ReadReq_mshr_hits::.cpu_cluster.cpus.data            7                       # number of ReadReq MSHR hits
system.cpu_cluster.cpus.dcache.ReadReq_mshr_hits::total            7                       # number of ReadReq MSHR hits
system.cpu_cluster.cpus.dcache.ReadReq_mshr_miss_latency::.cpu_cluster.cpus.data      5831500                       # number of ReadReq MSHR miss cycles
system.cpu_cluster.cpus.dcache.ReadReq_mshr_miss_latency::total      5831500                       # number of ReadReq MSHR miss cycles
system.cpu_cluster.cpus.dcache.ReadReq_mshr_miss_rate::.cpu_cluster.cpus.data     0.000129                       # mshr miss rate for ReadReq accesses
system.cpu_cluster.cpus.dcache.ReadReq_mshr_miss_rate::total     0.000129                       # mshr miss rate for ReadReq accesses
system.cpu_cluster.cpus.dcache.ReadReq_mshr_misses::.cpu_cluster.cpus.data           91                       # number of ReadReq MSHR misses
system.cpu_cluster.cpus.dcache.ReadReq_mshr_misses::total           91                       # number of ReadReq MSHR misses
system.cpu_cluster.cpus.dcache.SoftPFReq_accesses::.cpu_cluster.cpus.data           34                       # number of SoftPFReq accesses(hits+misses)
system.cpu_cluster.cpus.dcache.SoftPFReq_accesses::total           34                       # number of SoftPFReq accesses(hits+misses)
system.cpu_cluster.cpus.dcache.SoftPFReq_avg_mshr_miss_latency::.cpu_cluster.cpus.data 71027.777778                       # average SoftPFReq mshr miss latency
system.cpu_cluster.cpus.dcache.SoftPFReq_avg_mshr_miss_latency::total 71027.777778                       # average SoftPFReq mshr miss latency
system.cpu_cluster.cpus.dcache.SoftPFReq_hits::.cpu_cluster.cpus.data           20                       # number of SoftPFReq hits
system.cpu_cluster.cpus.dcache.SoftPFReq_hits::total           20                       # number of SoftPFReq hits
system.cpu_cluster.cpus.dcache.SoftPFReq_miss_rate::.cpu_cluster.cpus.data     0.411765                       # miss rate for SoftPFReq accesses
system.cpu_cluster.cpus.dcache.SoftPFReq_miss_rate::total     0.411765                       # miss rate for SoftPFReq accesses
system.cpu_cluster.cpus.dcache.SoftPFReq_misses::.cpu_cluster.cpus.data           14                       # number of SoftPFReq misses
system.cpu_cluster.cpus.dcache.SoftPFReq_misses::total           14                       # number of SoftPFReq misses
system.cpu_cluster.cpus.dcache.SoftPFReq_mshr_miss_latency::.cpu_cluster.cpus.data       639250                       # number of SoftPFReq MSHR miss cycles
system.cpu_cluster.cpus.dcache.SoftPFReq_mshr_miss_latency::total       639250                       # number of SoftPFReq MSHR miss cycles
system.cpu_cluster.cpus.dcache.SoftPFReq_mshr_miss_rate::.cpu_cluster.cpus.data     0.264706                       # mshr miss rate for SoftPFReq accesses
system.cpu_cluster.cpus.dcache.SoftPFReq_mshr_miss_rate::total     0.264706                       # mshr miss rate for SoftPFReq accesses
system.cpu_cluster.cpus.dcache.SoftPFReq_mshr_misses::.cpu_cluster.cpus.data            9                       # number of SoftPFReq MSHR misses
system.cpu_cluster.cpus.dcache.SoftPFReq_mshr_misses::total            9                       # number of SoftPFReq MSHR misses
system.cpu_cluster.cpus.dcache.StoreCondReq_accesses::.cpu_cluster.cpus.data           18                       # number of StoreCondReq accesses(hits+misses)
system.cpu_cluster.cpus.dcache.StoreCondReq_accesses::total           18                       # number of StoreCondReq accesses(hits+misses)
system.cpu_cluster.cpus.dcache.StoreCondReq_hits::.cpu_cluster.cpus.data           18                       # number of StoreCondReq hits
system.cpu_cluster.cpus.dcache.StoreCondReq_hits::total           18                       # number of StoreCondReq hits
system.cpu_cluster.cpus.dcache.WriteReq_accesses::.cpu_cluster.cpus.data       187405                       # number of WriteReq accesses(hits+misses)
system.cpu_cluster.cpus.dcache.WriteReq_accesses::total       187405                       # number of WriteReq accesses(hits+misses)
system.cpu_cluster.cpus.dcache.WriteReq_avg_miss_latency::.cpu_cluster.cpus.data 90341.880342                       # average WriteReq miss latency
system.cpu_cluster.cpus.dcache.WriteReq_avg_miss_latency::total 90341.880342                       # average WriteReq miss latency
system.cpu_cluster.cpus.dcache.WriteReq_avg_mshr_miss_latency::.cpu_cluster.cpus.data 89029.411765                       # average WriteReq mshr miss latency
system.cpu_cluster.cpus.dcache.WriteReq_avg_mshr_miss_latency::total 89029.411765                       # average WriteReq mshr miss latency
system.cpu_cluster.cpus.dcache.WriteReq_hits::.cpu_cluster.cpus.data       187288                       # number of WriteReq hits
system.cpu_cluster.cpus.dcache.WriteReq_hits::total       187288                       # number of WriteReq hits
system.cpu_cluster.cpus.dcache.WriteReq_miss_latency::.cpu_cluster.cpus.data     10570000                       # number of WriteReq miss cycles
system.cpu_cluster.cpus.dcache.WriteReq_miss_latency::total     10570000                       # number of WriteReq miss cycles
system.cpu_cluster.cpus.dcache.WriteReq_miss_rate::.cpu_cluster.cpus.data     0.000624                       # miss rate for WriteReq accesses
system.cpu_cluster.cpus.dcache.WriteReq_miss_rate::total     0.000624                       # miss rate for WriteReq accesses
system.cpu_cluster.cpus.dcache.WriteReq_misses::.cpu_cluster.cpus.data          117                       # number of WriteReq misses
system.cpu_cluster.cpus.dcache.WriteReq_misses::total          117                       # number of WriteReq misses
system.cpu_cluster.cpus.dcache.WriteReq_mshr_hits::.cpu_cluster.cpus.data           49                       # number of WriteReq MSHR hits
system.cpu_cluster.cpus.dcache.WriteReq_mshr_hits::total           49                       # number of WriteReq MSHR hits
system.cpu_cluster.cpus.dcache.WriteReq_mshr_miss_latency::.cpu_cluster.cpus.data      6054000                       # number of WriteReq MSHR miss cycles
system.cpu_cluster.cpus.dcache.WriteReq_mshr_miss_latency::total      6054000                       # number of WriteReq MSHR miss cycles
system.cpu_cluster.cpus.dcache.WriteReq_mshr_miss_rate::.cpu_cluster.cpus.data     0.000363                       # mshr miss rate for WriteReq accesses
system.cpu_cluster.cpus.dcache.WriteReq_mshr_miss_rate::total     0.000363                       # mshr miss rate for WriteReq accesses
system.cpu_cluster.cpus.dcache.WriteReq_mshr_misses::.cpu_cluster.cpus.data           68                       # number of WriteReq MSHR misses
system.cpu_cluster.cpus.dcache.WriteReq_mshr_misses::total           68                       # number of WriteReq MSHR misses
system.cpu_cluster.cpus.dcache.avg_blocked_cycles::no_mshrs          nan                       # average number of cycles each access was blocked
system.cpu_cluster.cpus.dcache.avg_blocked_cycles::no_targets          nan                       # average number of cycles each access was blocked
system.cpu_cluster.cpus.dcache.blocked::no_mshrs            0                       # number of cycles access was blocked
system.cpu_cluster.cpus.dcache.blocked::no_targets            0                       # number of cycles access was blocked
system.cpu_cluster.cpus.dcache.blocked_cycles::no_mshrs            0                       # number of cycles access was blocked
system.cpu_cluster.cpus.dcache.blocked_cycles::no_targets            0                       # number of cycles access was blocked
system.cpu_cluster.cpus.dcache.demand_accesses::.cpu_cluster.cpus.data       892507                       # number of demand (read+write) accesses
system.cpu_cluster.cpus.dcache.demand_accesses::total       892507                       # number of demand (read+write) accesses
system.cpu_cluster.cpus.dcache.demand_avg_miss_latency::.cpu_cluster.cpus.data 78159.302326                       # average overall miss latency
system.cpu_cluster.cpus.dcache.demand_avg_miss_latency::total 78159.302326                       # average overall miss latency
system.cpu_cluster.cpus.dcache.demand_avg_mshr_miss_latency::.cpu_cluster.cpus.data 74751.572327                       # average overall mshr miss latency
system.cpu_cluster.cpus.dcache.demand_avg_mshr_miss_latency::total 74751.572327                       # average overall mshr miss latency
system.cpu_cluster.cpus.dcache.demand_hits::.cpu_cluster.cpus.data       892292                       # number of demand (read+write) hits
system.cpu_cluster.cpus.dcache.demand_hits::total       892292                       # number of demand (read+write) hits
system.cpu_cluster.cpus.dcache.demand_miss_latency::.cpu_cluster.cpus.data     16804250                       # number of demand (read+write) miss cycles
system.cpu_cluster.cpus.dcache.demand_miss_latency::total     16804250                       # number of demand (read+write) miss cycles
system.cpu_cluster.cpus.dcache.demand_miss_rate::.cpu_cluster.cpus.data     0.000241                       # miss rate for demand accesses
system.cpu_cluster.cpus.dcache.demand_miss_rate::total     0.000241                       # miss rate for demand accesses
system.cpu_cluster.cpus.dcache.demand_misses::.cpu_cluster.cpus.data          215                       # number of demand (read+write) misses
system.cpu_cluster.cpus.dcache.demand_misses::total          215                       # number of demand (read+write) misses
system.cpu_cluster.cpus.dcache.demand_mshr_hits::.cpu_cluster.cpus.data           56                       # number of demand (read+write) MSHR hits
system.cpu_cluster.cpus.dcache.demand_mshr_hits::total           56                       # number of demand (read+write) MSHR hits
system.cpu_cluster.cpus.dcache.demand_mshr_miss_latency::.cpu_cluster.cpus.data     11885500                       # number of demand (read+write) MSHR miss cycles
system.cpu_cluster.cpus.dcache.demand_mshr_miss_latency::total     11885500                       # number of demand (read+write) MSHR miss cycles
system.cpu_cluster.cpus.dcache.demand_mshr_miss_rate::.cpu_cluster.cpus.data     0.000178                       # mshr miss rate for demand accesses
system.cpu_cluster.cpus.dcache.demand_mshr_miss_rate::total     0.000178                       # mshr miss rate for demand accesses
system.cpu_cluster.cpus.dcache.demand_mshr_misses::.cpu_cluster.cpus.data          159                       # number of demand (read+write) MSHR misses
system.cpu_cluster.cpus.dcache.demand_mshr_misses::total          159                       # number of demand (read+write) MSHR misses
system.cpu_cluster.cpus.dcache.overall_accesses::.cpu_cluster.cpus.data       892541                       # number of overall (read+write) accesses
system.cpu_cluster.cpus.dcache.overall_accesses::total       892541                       # number of overall (read+write) accesses
system.cpu_cluster.cpus.dcache.overall_avg_miss_latency::.cpu_cluster.cpus.data 73381.004367                       # average overall miss latency
system.cpu_cluster.cpus.dcache.overall_avg_miss_latency::total 73381.004367                       # average overall miss latency
system.cpu_cluster.cpus.dcache.overall_avg_mshr_miss_latency::.cpu_cluster.cpus.data 74552.083333                       # average overall mshr miss latency
system.cpu_cluster.cpus.dcache.overall_avg_mshr_miss_latency::.cpu_cluster.cpus.dcache.prefetcher 67811.750000                       # average overall mshr miss latency
system.cpu_cluster.cpus.dcache.overall_avg_mshr_miss_latency::total 74395.331395                       # average overall mshr miss latency
system.cpu_cluster.cpus.dcache.overall_hits::.cpu_cluster.cpus.data       892312                       # number of overall hits
system.cpu_cluster.cpus.dcache.overall_hits::total       892312                       # number of overall hits
system.cpu_cluster.cpus.dcache.overall_miss_latency::.cpu_cluster.cpus.data     16804250                       # number of overall miss cycles
system.cpu_cluster.cpus.dcache.overall_miss_latency::total     16804250                       # number of overall miss cycles
system.cpu_cluster.cpus.dcache.overall_miss_rate::.cpu_cluster.cpus.data     0.000257                       # miss rate for overall accesses
system.cpu_cluster.cpus.dcache.overall_miss_rate::total     0.000257                       # miss rate for overall accesses
system.cpu_cluster.cpus.dcache.overall_misses::.cpu_cluster.cpus.data          229                       # number of overall misses
system.cpu_cluster.cpus.dcache.overall_misses::total          229                       # number of overall misses
system.cpu_cluster.cpus.dcache.overall_mshr_hits::.cpu_cluster.cpus.data           56                       # number of overall MSHR hits
system.cpu_cluster.cpus.dcache.overall_mshr_hits::total           56                       # number of overall MSHR hits
system.cpu_cluster.cpus.dcache.overall_mshr_miss_latency::.cpu_cluster.cpus.data     12524750                       # number of overall MSHR miss cycles
system.cpu_cluster.cpus.dcache.overall_mshr_miss_latency::.cpu_cluster.cpus.dcache.prefetcher       271247                       # number of overall MSHR miss cycles
system.cpu_cluster.cpus.dcache.overall_mshr_miss_latency::total     12795997                       # number of overall MSHR miss cycles
system.cpu_cluster.cpus.dcache.overall_mshr_miss_rate::.cpu_cluster.cpus.data     0.000188                       # mshr miss rate for overall accesses
system.cpu_cluster.cpus.dcache.overall_mshr_miss_rate::.cpu_cluster.cpus.dcache.prefetcher          inf                       # mshr miss rate for overall accesses
system.cpu_cluster.cpus.dcache.overall_mshr_miss_rate::total     0.000193                       # mshr miss rate for overall accesses
system.cpu_cluster.cpus.dcache.overall_mshr_misses::.cpu_cluster.cpus.data          168                       # number of overall MSHR misses
system.cpu_cluster.cpus.dcache.overall_mshr_misses::.cpu_cluster.cpus.dcache.prefetcher            4                       # number of overall MSHR misses
system.cpu_cluster.cpus.dcache.overall_mshr_misses::total          172                       # number of overall MSHR misses
system.cpu_cluster.cpus.dcache.prefetcher.num_hwpf_issued            4                       # number of hwpf issued
system.cpu_cluster.cpus.dcache.prefetcher.pfBufferHit            0                       # number of redundant prefetches already in prefetch queue
system.cpu_cluster.cpus.dcache.prefetcher.pfIdentified            4                       # number of prefetch candidates identified
system.cpu_cluster.cpus.dcache.prefetcher.pfInCache            0                       # number of redundant prefetches already in cache/mshr dropped
system.cpu_cluster.cpus.dcache.prefetcher.pfRemovedFull            0                       # number of prefetches dropped due to prefetch queue size
system.cpu_cluster.cpus.dcache.prefetcher.pfSpanPage            0                       # number of prefetches not generated due to page crossing
system.cpu_cluster.cpus.dcache.prefetcher.pwrStateResidencyTicks::UNDEFINED    525493750                       # Cumulative time (in ticks) in various power states
system.cpu_cluster.cpus.dcache.pwrStateResidencyTicks::UNDEFINED    525493750                       # Cumulative time (in ticks) in various power states
system.cpu_cluster.cpus.dcache.replacements            5                       # number of replacements
system.cpu_cluster.cpus.dcache.tags.age_task_id_blocks_1022::2            4                       # Occupied blocks per task id
system.cpu_cluster.cpus.dcache.tags.age_task_id_blocks_1024::0           29                       # Occupied blocks per task id
system.cpu_cluster.cpus.dcache.tags.age_task_id_blocks_1024::1            8                       # Occupied blocks per task id
system.cpu_cluster.cpus.dcache.tags.age_task_id_blocks_1024::2          126                       # Occupied blocks per task id
system.cpu_cluster.cpus.dcache.tags.avg_refs  5189.069767                       # Average number of references to valid blocks.
system.cpu_cluster.cpus.dcache.tags.data_accesses      7140788                       # Number of data accesses
system.cpu_cluster.cpus.dcache.tags.occ_blocks::.cpu_cluster.cpus.data   126.769600                       # Average occupied blocks per requestor
system.cpu_cluster.cpus.dcache.tags.occ_blocks::.cpu_cluster.cpus.dcache.prefetcher     3.942816                       # Average occupied blocks per requestor
system.cpu_cluster.cpus.dcache.tags.occ_percent::.cpu_cluster.cpus.data     0.495194                       # Average percentage of cache occupancy
system.cpu_cluster.cpus.dcache.tags.occ_percent::.cpu_cluster.cpus.dcache.prefetcher     0.015402                       # Average percentage of cache occupancy
system.cpu_cluster.cpus.dcache.tags.occ_percent::total     0.510595                       # Average percentage of cache occupancy
system.cpu_cluster.cpus.dcache.tags.occ_task_id_blocks::1022            4                       # Occupied blocks per task id
system.cpu_cluster.cpus.dcache.tags.occ_task_id_blocks::1024          163                       # Occupied blocks per task id
system.cpu_cluster.cpus.dcache.tags.occ_task_id_percent::1022     0.015625                       # Percentage of cache occupancy per task id
system.cpu_cluster.cpus.dcache.tags.occ_task_id_percent::1024     0.636719                       # Percentage of cache occupancy per task id
system.cpu_cluster.cpus.dcache.tags.pwrStateResidencyTicks::UNDEFINED    525493750                       # Cumulative time (in ticks) in various power states
system.cpu_cluster.cpus.dcache.tags.sampled_refs          172                       # Sample count of references to valid blocks.
system.cpu_cluster.cpus.dcache.tags.tag_accesses      7140788                       # Number of tag accesses
system.cpu_cluster.cpus.dcache.tags.tagsinuse   130.712415                       # Cycle average of tags in use
system.cpu_cluster.cpus.dcache.tags.total_refs       892520                       # Total number of references to valid blocks.
system.cpu_cluster.cpus.dcache.tags.warmup_cycle       152500                       # Cycle when the warmup percentage was hit.
system.cpu_cluster.cpus.discardedOps            64451                       # Number of ops (including micro ops) which were discarded before commit
system.cpu_cluster.cpus.dstage2_mmu.stage2_tlb.accesses            0                       # DTB accesses
system.cpu_cluster.cpus.dstage2_mmu.stage2_tlb.align_faults            0                       # Number of TLB faults due to alignment restrictions
system.cpu_cluster.cpus.dstage2_mmu.stage2_tlb.domain_faults            0                       # Number of TLB faults due to domain restrictions
system.cpu_cluster.cpus.dstage2_mmu.stage2_tlb.flush_entries            0                       # Number of entries that have been flushed from TLB
system.cpu_cluster.cpus.dstage2_mmu.stage2_tlb.flush_tlb            0                       # Number of times complete TLB was flushed
system.cpu_cluster.cpus.dstage2_mmu.stage2_tlb.flush_tlb_asid            0                       # Number of times TLB was flushed by ASID
system.cpu_cluster.cpus.dstage2_mmu.stage2_tlb.flush_tlb_mva            0                       # Number of times TLB was flushed by MVA
system.cpu_cluster.cpus.dstage2_mmu.stage2_tlb.flush_tlb_mva_asid            0                       # Number of times TLB was flushed by MVA & ASID
system.cpu_cluster.cpus.dstage2_mmu.stage2_tlb.hits            0                       # DTB hits
system.cpu_cluster.cpus.dstage2_mmu.stage2_tlb.inst_accesses            0                       # ITB inst accesses
system.cpu_cluster.cpus.dstage2_mmu.stage2_tlb.inst_hits            0                       # ITB inst hits
system.cpu_cluster.cpus.dstage2_mmu.stage2_tlb.inst_misses            0                       # ITB inst misses
system.cpu_cluster.cpus.dstage2_mmu.stage2_tlb.misses            0                       # DTB misses
system.cpu_cluster.cpus.dstage2_mmu.stage2_tlb.perms_faults            0                       # Number of TLB faults due to permissions restrictions
system.cpu_cluster.cpus.dstage2_mmu.stage2_tlb.prefetch_faults            0                       # Number of TLB faults due to prefetch
system.cpu_cluster.cpus.dstage2_mmu.stage2_tlb.read_accesses            0                       # DTB read accesses
system.cpu_cluster.cpus.dstage2_mmu.stage2_tlb.read_hits            0                       # DTB read hits
system.cpu_cluster.cpus.dstage2_mmu.stage2_tlb.read_misses            0                       # DTB read misses
system.cpu_cluster.cpus.dstage2_mmu.stage2_tlb.walker.pwrStateResidencyTicks::UNDEFINED    525493750                       # Cumulative time (in ticks) in various power states
system.cpu_cluster.cpus.dstage2_mmu.stage2_tlb.walker.walkRequestOrigin_Requested::Data            0                       # Table walker requests started/completed, data/inst
system.cpu_cluster.cpus.dstage2_mmu.stage2_tlb.walker.walkRequestOrigin_Requested::Inst            0                       # Table walker requests started/completed, data/inst
system.cpu_cluster.cpus.dstage2_mmu.stage2_tlb.walker.walkRequestOrigin_Requested::total            0                       # Table walker requests started/completed, data/inst
system.cpu_cluster.cpus.dstage2_mmu.stage2_tlb.walker.walkRequestOrigin_Completed::Data            0                       # Table walker requests started/completed, data/inst
system.cpu_cluster.cpus.dstage2_mmu.stage2_tlb.walker.walkRequestOrigin_Completed::Inst            0                       # Table walker requests started/completed, data/inst
system.cpu_cluster.cpus.dstage2_mmu.stage2_tlb.walker.walkRequestOrigin_Completed::total            0                       # Table walker requests started/completed, data/inst
system.cpu_cluster.cpus.dstage2_mmu.stage2_tlb.walker.walkRequestOrigin::total            0                       # Table walker requests started/completed, data/inst
system.cpu_cluster.cpus.dstage2_mmu.stage2_tlb.walker.walks            0                       # Table walker walks requested
system.cpu_cluster.cpus.dstage2_mmu.stage2_tlb.write_accesses            0                       # DTB write accesses
system.cpu_cluster.cpus.dstage2_mmu.stage2_tlb.write_hits            0                       # DTB write hits
system.cpu_cluster.cpus.dstage2_mmu.stage2_tlb.write_misses            0                       # DTB write misses
system.cpu_cluster.cpus.dtb.accesses                0                       # DTB accesses
system.cpu_cluster.cpus.dtb.align_faults            0                       # Number of TLB faults due to alignment restrictions
system.cpu_cluster.cpus.dtb.domain_faults            0                       # Number of TLB faults due to domain restrictions
system.cpu_cluster.cpus.dtb.flush_entries            0                       # Number of entries that have been flushed from TLB
system.cpu_cluster.cpus.dtb.flush_tlb               0                       # Number of times complete TLB was flushed
system.cpu_cluster.cpus.dtb.flush_tlb_asid            0                       # Number of times TLB was flushed by ASID
system.cpu_cluster.cpus.dtb.flush_tlb_mva            0                       # Number of times TLB was flushed by MVA
system.cpu_cluster.cpus.dtb.flush_tlb_mva_asid            0                       # Number of times TLB was flushed by MVA & ASID
system.cpu_cluster.cpus.dtb.hits                    0                       # DTB hits
system.cpu_cluster.cpus.dtb.inst_accesses            0                       # ITB inst accesses
system.cpu_cluster.cpus.dtb.inst_hits               0                       # ITB inst hits
system.cpu_cluster.cpus.dtb.inst_misses             0                       # ITB inst misses
system.cpu_cluster.cpus.dtb.misses                  0                       # DTB misses
system.cpu_cluster.cpus.dtb.perms_faults            0                       # Number of TLB faults due to permissions restrictions
system.cpu_cluster.cpus.dtb.prefetch_faults            0                       # Number of TLB faults due to prefetch
system.cpu_cluster.cpus.dtb.read_accesses            0                       # DTB read accesses
system.cpu_cluster.cpus.dtb.read_hits               0                       # DTB read hits
system.cpu_cluster.cpus.dtb.read_misses             0                       # DTB read misses
system.cpu_cluster.cpus.dtb.walker.pwrStateResidencyTicks::UNDEFINED    525493750                       # Cumulative time (in ticks) in various power states
system.cpu_cluster.cpus.dtb.walker.walkRequestOrigin_Requested::Data            0                       # Table walker requests started/completed, data/inst
system.cpu_cluster.cpus.dtb.walker.walkRequestOrigin_Requested::Inst            0                       # Table walker requests started/completed, data/inst
system.cpu_cluster.cpus.dtb.walker.walkRequestOrigin_Requested::total            0                       # Table walker requests started/completed, data/inst
system.cpu_cluster.cpus.dtb.walker.walkRequestOrigin_Completed::Data            0                       # Table walker requests started/completed, data/inst
system.cpu_cluster.cpus.dtb.walker.walkRequestOrigin_Completed::Inst            0                       # Table walker requests started/completed, data/inst
system.cpu_cluster.cpus.dtb.walker.walkRequestOrigin_Completed::total            0                       # Table walker requests started/completed, data/inst
system.cpu_cluster.cpus.dtb.walker.walkRequestOrigin::total            0                       # Table walker requests started/completed, data/inst
system.cpu_cluster.cpus.dtb.walker.walks            0                       # Table walker walks requested
system.cpu_cluster.cpus.dtb.write_accesses            0                       # DTB write accesses
system.cpu_cluster.cpus.dtb.write_hits              0                       # DTB write hits
system.cpu_cluster.cpus.dtb.write_misses            0                       # DTB write misses
system.cpu_cluster.cpus.dtb_walker_cache.avg_blocked_cycles::no_mshrs          nan                       # average number of cycles each access was blocked
system.cpu_cluster.cpus.dtb_walker_cache.avg_blocked_cycles::no_targets          nan                       # average number of cycles each access was blocked
system.cpu_cluster.cpus.dtb_walker_cache.blocked::no_mshrs            0                       # number of cycles access was blocked
system.cpu_cluster.cpus.dtb_walker_cache.blocked::no_targets            0                       # number of cycles access was blocked
system.cpu_cluster.cpus.dtb_walker_cache.blocked_cycles::no_mshrs            0                       # number of cycles access was blocked
system.cpu_cluster.cpus.dtb_walker_cache.blocked_cycles::no_targets            0                       # number of cycles access was blocked
system.cpu_cluster.cpus.dtb_walker_cache.pwrStateResidencyTicks::UNDEFINED    525493750                       # Cumulative time (in ticks) in various power states
system.cpu_cluster.cpus.dtb_walker_cache.replacements            0                       # number of replacements
system.cpu_cluster.cpus.dtb_walker_cache.tags.avg_refs          nan                       # Average number of references to valid blocks.
system.cpu_cluster.cpus.dtb_walker_cache.tags.data_accesses            0                       # Number of data accesses
system.cpu_cluster.cpus.dtb_walker_cache.tags.pwrStateResidencyTicks::UNDEFINED    525493750                       # Cumulative time (in ticks) in various power states
system.cpu_cluster.cpus.dtb_walker_cache.tags.sampled_refs            0                       # Sample count of references to valid blocks.
system.cpu_cluster.cpus.dtb_walker_cache.tags.tag_accesses            0                       # Number of tag accesses
system.cpu_cluster.cpus.dtb_walker_cache.tags.tagsinuse            0                       # Cycle average of tags in use
system.cpu_cluster.cpus.dtb_walker_cache.tags.total_refs            0                       # Total number of references to valid blocks.
system.cpu_cluster.cpus.dtb_walker_cache.tags.warmup_cycle            0                       # Cycle when the warmup percentage was hit.
system.cpu_cluster.cpus.fetch2.amo_instructions            0                       # Number of memory atomic instructions successfully decoded
system.cpu_cluster.cpus.fetch2.fp_instructions            0                       # Number of floating point instructions successfully decoded
system.cpu_cluster.cpus.fetch2.int_instructions       923512                       # Number of integer instructions successfully decoded
system.cpu_cluster.cpus.fetch2.load_instructions       911776                       # Number of memory load instructions successfully decoded
system.cpu_cluster.cpus.fetch2.store_instructions       225700                       # Number of memory store instructions successfully decoded
system.cpu_cluster.cpus.fetch2.vec_instructions            0                       # Number of SIMD instructions successfully decoded
system.cpu_cluster.cpus.icache.ReadReq_accesses::.cpu_cluster.cpus.inst       532353                       # number of ReadReq accesses(hits+misses)
system.cpu_cluster.cpus.icache.ReadReq_accesses::total       532353                       # number of ReadReq accesses(hits+misses)
system.cpu_cluster.cpus.icache.ReadReq_avg_miss_latency::.cpu_cluster.cpus.inst 65454.176334                       # average ReadReq miss latency
system.cpu_cluster.cpus.icache.ReadReq_avg_miss_latency::total 65454.176334                       # average ReadReq miss latency
system.cpu_cluster.cpus.icache.ReadReq_avg_mshr_miss_latency::.cpu_cluster.cpus.inst 65204.756381                       # average ReadReq mshr miss latency
system.cpu_cluster.cpus.icache.ReadReq_avg_mshr_miss_latency::total 65204.756381                       # average ReadReq mshr miss latency
system.cpu_cluster.cpus.icache.ReadReq_hits::.cpu_cluster.cpus.inst       531922                       # number of ReadReq hits
system.cpu_cluster.cpus.icache.ReadReq_hits::total       531922                       # number of ReadReq hits
system.cpu_cluster.cpus.icache.ReadReq_miss_latency::.cpu_cluster.cpus.inst     28210750                       # number of ReadReq miss cycles
system.cpu_cluster.cpus.icache.ReadReq_miss_latency::total     28210750                       # number of ReadReq miss cycles
system.cpu_cluster.cpus.icache.ReadReq_miss_rate::.cpu_cluster.cpus.inst     0.000810                       # miss rate for ReadReq accesses
system.cpu_cluster.cpus.icache.ReadReq_miss_rate::total     0.000810                       # miss rate for ReadReq accesses
system.cpu_cluster.cpus.icache.ReadReq_misses::.cpu_cluster.cpus.inst          431                       # number of ReadReq misses
system.cpu_cluster.cpus.icache.ReadReq_misses::total          431                       # number of ReadReq misses
system.cpu_cluster.cpus.icache.ReadReq_mshr_miss_latency::.cpu_cluster.cpus.inst     28103250                       # number of ReadReq MSHR miss cycles
system.cpu_cluster.cpus.icache.ReadReq_mshr_miss_latency::total     28103250                       # number of ReadReq MSHR miss cycles
system.cpu_cluster.cpus.icache.ReadReq_mshr_miss_rate::.cpu_cluster.cpus.inst     0.000810                       # mshr miss rate for ReadReq accesses
system.cpu_cluster.cpus.icache.ReadReq_mshr_miss_rate::total     0.000810                       # mshr miss rate for ReadReq accesses
system.cpu_cluster.cpus.icache.ReadReq_mshr_misses::.cpu_cluster.cpus.inst          431                       # number of ReadReq MSHR misses
system.cpu_cluster.cpus.icache.ReadReq_mshr_misses::total          431                       # number of ReadReq MSHR misses
system.cpu_cluster.cpus.icache.avg_blocked_cycles::no_mshrs          nan                       # average number of cycles each access was blocked
system.cpu_cluster.cpus.icache.avg_blocked_cycles::no_targets          nan                       # average number of cycles each access was blocked
system.cpu_cluster.cpus.icache.blocked::no_mshrs            0                       # number of cycles access was blocked
system.cpu_cluster.cpus.icache.blocked::no_targets            0                       # number of cycles access was blocked
system.cpu_cluster.cpus.icache.blocked_cycles::no_mshrs            0                       # number of cycles access was blocked
system.cpu_cluster.cpus.icache.blocked_cycles::no_targets            0                       # number of cycles access was blocked
system.cpu_cluster.cpus.icache.demand_accesses::.cpu_cluster.cpus.inst       532353                       # number of demand (read+write) accesses
system.cpu_cluster.cpus.icache.demand_accesses::total       532353                       # number of demand (read+write) accesses
system.cpu_cluster.cpus.icache.demand_avg_miss_latency::.cpu_cluster.cpus.inst 65454.176334                       # average overall miss latency
system.cpu_cluster.cpus.icache.demand_avg_miss_latency::total 65454.176334                       # average overall miss latency
system.cpu_cluster.cpus.icache.demand_avg_mshr_miss_latency::.cpu_cluster.cpus.inst 65204.756381                       # average overall mshr miss latency
system.cpu_cluster.cpus.icache.demand_avg_mshr_miss_latency::total 65204.756381                       # average overall mshr miss latency
system.cpu_cluster.cpus.icache.demand_hits::.cpu_cluster.cpus.inst       531922                       # number of demand (read+write) hits
system.cpu_cluster.cpus.icache.demand_hits::total       531922                       # number of demand (read+write) hits
system.cpu_cluster.cpus.icache.demand_miss_latency::.cpu_cluster.cpus.inst     28210750                       # number of demand (read+write) miss cycles
system.cpu_cluster.cpus.icache.demand_miss_latency::total     28210750                       # number of demand (read+write) miss cycles
system.cpu_cluster.cpus.icache.demand_miss_rate::.cpu_cluster.cpus.inst     0.000810                       # miss rate for demand accesses
system.cpu_cluster.cpus.icache.demand_miss_rate::total     0.000810                       # miss rate for demand accesses
system.cpu_cluster.cpus.icache.demand_misses::.cpu_cluster.cpus.inst          431                       # number of demand (read+write) misses
system.cpu_cluster.cpus.icache.demand_misses::total          431                       # number of demand (read+write) misses
system.cpu_cluster.cpus.icache.demand_mshr_miss_latency::.cpu_cluster.cpus.inst     28103250                       # number of demand (read+write) MSHR miss cycles
system.cpu_cluster.cpus.icache.demand_mshr_miss_latency::total     28103250                       # number of demand (read+write) MSHR miss cycles
system.cpu_cluster.cpus.icache.demand_mshr_miss_rate::.cpu_cluster.cpus.inst     0.000810                       # mshr miss rate for demand accesses
system.cpu_cluster.cpus.icache.demand_mshr_miss_rate::total     0.000810                       # mshr miss rate for demand accesses
system.cpu_cluster.cpus.icache.demand_mshr_misses::.cpu_cluster.cpus.inst          431                       # number of demand (read+write) MSHR misses
system.cpu_cluster.cpus.icache.demand_mshr_misses::total          431                       # number of demand (read+write) MSHR misses
system.cpu_cluster.cpus.icache.overall_accesses::.cpu_cluster.cpus.inst       532353                       # number of overall (read+write) accesses
system.cpu_cluster.cpus.icache.overall_accesses::total       532353                       # number of overall (read+write) accesses
system.cpu_cluster.cpus.icache.overall_avg_miss_latency::.cpu_cluster.cpus.inst 65454.176334                       # average overall miss latency
system.cpu_cluster.cpus.icache.overall_avg_miss_latency::total 65454.176334                       # average overall miss latency
system.cpu_cluster.cpus.icache.overall_avg_mshr_miss_latency::.cpu_cluster.cpus.inst 65204.756381                       # average overall mshr miss latency
system.cpu_cluster.cpus.icache.overall_avg_mshr_miss_latency::total 65204.756381                       # average overall mshr miss latency
system.cpu_cluster.cpus.icache.overall_hits::.cpu_cluster.cpus.inst       531922                       # number of overall hits
system.cpu_cluster.cpus.icache.overall_hits::total       531922                       # number of overall hits
system.cpu_cluster.cpus.icache.overall_miss_latency::.cpu_cluster.cpus.inst     28210750                       # number of overall miss cycles
system.cpu_cluster.cpus.icache.overall_miss_latency::total     28210750                       # number of overall miss cycles
system.cpu_cluster.cpus.icache.overall_miss_rate::.cpu_cluster.cpus.inst     0.000810                       # miss rate for overall accesses
system.cpu_cluster.cpus.icache.overall_miss_rate::total     0.000810                       # miss rate for overall accesses
system.cpu_cluster.cpus.icache.overall_misses::.cpu_cluster.cpus.inst          431                       # number of overall misses
system.cpu_cluster.cpus.icache.overall_misses::total          431                       # number of overall misses
system.cpu_cluster.cpus.icache.overall_mshr_miss_latency::.cpu_cluster.cpus.inst     28103250                       # number of overall MSHR miss cycles
system.cpu_cluster.cpus.icache.overall_mshr_miss_latency::total     28103250                       # number of overall MSHR miss cycles
system.cpu_cluster.cpus.icache.overall_mshr_miss_rate::.cpu_cluster.cpus.inst     0.000810                       # mshr miss rate for overall accesses
system.cpu_cluster.cpus.icache.overall_mshr_miss_rate::total     0.000810                       # mshr miss rate for overall accesses
system.cpu_cluster.cpus.icache.overall_mshr_misses::.cpu_cluster.cpus.inst          431                       # number of overall MSHR misses
system.cpu_cluster.cpus.icache.overall_mshr_misses::total          431                       # number of overall MSHR misses
system.cpu_cluster.cpus.icache.pwrStateResidencyTicks::UNDEFINED    525493750                       # Cumulative time (in ticks) in various power states
system.cpu_cluster.cpus.icache.replacements          174                       # number of replacements
system.cpu_cluster.cpus.icache.tags.age_task_id_blocks_1024::0          137                       # Occupied blocks per task id
system.cpu_cluster.cpus.icache.tags.age_task_id_blocks_1024::1           11                       # Occupied blocks per task id
system.cpu_cluster.cpus.icache.tags.age_task_id_blocks_1024::2          108                       # Occupied blocks per task id
system.cpu_cluster.cpus.icache.tags.avg_refs  1238.027907                       # Average number of references to valid blocks.
system.cpu_cluster.cpus.icache.tags.data_accesses      4259254                       # Number of data accesses
system.cpu_cluster.cpus.icache.tags.occ_blocks::.cpu_cluster.cpus.inst   238.361926                       # Average occupied blocks per requestor
system.cpu_cluster.cpus.icache.tags.occ_percent::.cpu_cluster.cpus.inst     0.931101                       # Average percentage of cache occupancy
system.cpu_cluster.cpus.icache.tags.occ_percent::total     0.931101                       # Average percentage of cache occupancy
system.cpu_cluster.cpus.icache.tags.occ_task_id_blocks::1024          256                       # Occupied blocks per task id
system.cpu_cluster.cpus.icache.tags.occ_task_id_percent::1024            1                       # Percentage of cache occupancy per task id
system.cpu_cluster.cpus.icache.tags.pwrStateResidencyTicks::UNDEFINED    525493750                       # Cumulative time (in ticks) in various power states
system.cpu_cluster.cpus.icache.tags.sampled_refs          430                       # Sample count of references to valid blocks.
system.cpu_cluster.cpus.icache.tags.tag_accesses      4259254                       # Number of tag accesses
system.cpu_cluster.cpus.icache.tags.tagsinuse   238.361926                       # Cycle average of tags in use
system.cpu_cluster.cpus.icache.tags.total_refs       532352                       # Total number of references to valid blocks.
system.cpu_cluster.cpus.icache.tags.warmup_cycle        78500                       # Cycle when the warmup percentage was hit.
system.cpu_cluster.cpus.idleCycles             132162                       # Total number of cycles that the object has spent stopped
system.cpu_cluster.cpus.ipc                  0.813810                       # IPC: instructions per cycle
system.cpu_cluster.cpus.istage2_mmu.stage2_tlb.accesses            0                       # DTB accesses
system.cpu_cluster.cpus.istage2_mmu.stage2_tlb.align_faults            0                       # Number of TLB faults due to alignment restrictions
system.cpu_cluster.cpus.istage2_mmu.stage2_tlb.domain_faults            0                       # Number of TLB faults due to domain restrictions
system.cpu_cluster.cpus.istage2_mmu.stage2_tlb.flush_entries            0                       # Number of entries that have been flushed from TLB
system.cpu_cluster.cpus.istage2_mmu.stage2_tlb.flush_tlb            0                       # Number of times complete TLB was flushed
system.cpu_cluster.cpus.istage2_mmu.stage2_tlb.flush_tlb_asid            0                       # Number of times TLB was flushed by ASID
system.cpu_cluster.cpus.istage2_mmu.stage2_tlb.flush_tlb_mva            0                       # Number of times TLB was flushed by MVA
system.cpu_cluster.cpus.istage2_mmu.stage2_tlb.flush_tlb_mva_asid            0                       # Number of times TLB was flushed by MVA & ASID
system.cpu_cluster.cpus.istage2_mmu.stage2_tlb.hits            0                       # DTB hits
system.cpu_cluster.cpus.istage2_mmu.stage2_tlb.inst_accesses            0                       # ITB inst accesses
system.cpu_cluster.cpus.istage2_mmu.stage2_tlb.inst_hits            0                       # ITB inst hits
system.cpu_cluster.cpus.istage2_mmu.stage2_tlb.inst_misses            0                       # ITB inst misses
system.cpu_cluster.cpus.istage2_mmu.stage2_tlb.misses            0                       # DTB misses
system.cpu_cluster.cpus.istage2_mmu.stage2_tlb.perms_faults            0                       # Number of TLB faults due to permissions restrictions
system.cpu_cluster.cpus.istage2_mmu.stage2_tlb.prefetch_faults            0                       # Number of TLB faults due to prefetch
system.cpu_cluster.cpus.istage2_mmu.stage2_tlb.read_accesses            0                       # DTB read accesses
system.cpu_cluster.cpus.istage2_mmu.stage2_tlb.read_hits            0                       # DTB read hits
system.cpu_cluster.cpus.istage2_mmu.stage2_tlb.read_misses            0                       # DTB read misses
system.cpu_cluster.cpus.istage2_mmu.stage2_tlb.walker.pwrStateResidencyTicks::UNDEFINED    525493750                       # Cumulative time (in ticks) in various power states
system.cpu_cluster.cpus.istage2_mmu.stage2_tlb.walker.walkRequestOrigin_Requested::Data            0                       # Table walker requests started/completed, data/inst
system.cpu_cluster.cpus.istage2_mmu.stage2_tlb.walker.walkRequestOrigin_Requested::Inst            0                       # Table walker requests started/completed, data/inst
system.cpu_cluster.cpus.istage2_mmu.stage2_tlb.walker.walkRequestOrigin_Requested::total            0                       # Table walker requests started/completed, data/inst
system.cpu_cluster.cpus.istage2_mmu.stage2_tlb.walker.walkRequestOrigin_Completed::Data            0                       # Table walker requests started/completed, data/inst
system.cpu_cluster.cpus.istage2_mmu.stage2_tlb.walker.walkRequestOrigin_Completed::Inst            0                       # Table walker requests started/completed, data/inst
system.cpu_cluster.cpus.istage2_mmu.stage2_tlb.walker.walkRequestOrigin_Completed::total            0                       # Table walker requests started/completed, data/inst
system.cpu_cluster.cpus.istage2_mmu.stage2_tlb.walker.walkRequestOrigin::total            0                       # Table walker requests started/completed, data/inst
system.cpu_cluster.cpus.istage2_mmu.stage2_tlb.walker.walks            0                       # Table walker walks requested
system.cpu_cluster.cpus.istage2_mmu.stage2_tlb.write_accesses            0                       # DTB write accesses
system.cpu_cluster.cpus.istage2_mmu.stage2_tlb.write_hits            0                       # DTB write hits
system.cpu_cluster.cpus.istage2_mmu.stage2_tlb.write_misses            0                       # DTB write misses
system.cpu_cluster.cpus.itb.accesses                0                       # DTB accesses
system.cpu_cluster.cpus.itb.align_faults            0                       # Number of TLB faults due to alignment restrictions
system.cpu_cluster.cpus.itb.domain_faults            0                       # Number of TLB faults due to domain restrictions
system.cpu_cluster.cpus.itb.flush_entries            0                       # Number of entries that have been flushed from TLB
system.cpu_cluster.cpus.itb.flush_tlb               0                       # Number of times complete TLB was flushed
system.cpu_cluster.cpus.itb.flush_tlb_asid            0                       # Number of times TLB was flushed by ASID
system.cpu_cluster.cpus.itb.flush_tlb_mva            0                       # Number of times TLB was flushed by MVA
system.cpu_cluster.cpus.itb.flush_tlb_mva_asid            0                       # Number of times TLB was flushed by MVA & ASID
system.cpu_cluster.cpus.itb.hits                    0                       # DTB hits
system.cpu_cluster.cpus.itb.inst_accesses            0                       # ITB inst accesses
system.cpu_cluster.cpus.itb.inst_hits               0                       # ITB inst hits
system.cpu_cluster.cpus.itb.inst_misses             0                       # ITB inst misses
system.cpu_cluster.cpus.itb.misses                  0                       # DTB misses
system.cpu_cluster.cpus.itb.perms_faults            0                       # Number of TLB faults due to permissions restrictions
system.cpu_cluster.cpus.itb.prefetch_faults            0                       # Number of TLB faults due to prefetch
system.cpu_cluster.cpus.itb.read_accesses            0                       # DTB read accesses
system.cpu_cluster.cpus.itb.read_hits               0                       # DTB read hits
system.cpu_cluster.cpus.itb.read_misses             0                       # DTB read misses
system.cpu_cluster.cpus.itb.walker.pwrStateResidencyTicks::UNDEFINED    525493750                       # Cumulative time (in ticks) in various power states
system.cpu_cluster.cpus.itb.walker.walkRequestOrigin_Requested::Data            0                       # Table walker requests started/completed, data/inst
system.cpu_cluster.cpus.itb.walker.walkRequestOrigin_Requested::Inst            0                       # Table walker requests started/completed, data/inst
system.cpu_cluster.cpus.itb.walker.walkRequestOrigin_Requested::total            0                       # Table walker requests started/completed, data/inst
system.cpu_cluster.cpus.itb.walker.walkRequestOrigin_Completed::Data            0                       # Table walker requests started/completed, data/inst
system.cpu_cluster.cpus.itb.walker.walkRequestOrigin_Completed::Inst            0                       # Table walker requests started/completed, data/inst
system.cpu_cluster.cpus.itb.walker.walkRequestOrigin_Completed::total            0                       # Table walker requests started/completed, data/inst
system.cpu_cluster.cpus.itb.walker.walkRequestOrigin::total            0                       # Table walker requests started/completed, data/inst
system.cpu_cluster.cpus.itb.walker.walks            0                       # Table walker walks requested
system.cpu_cluster.cpus.itb.write_accesses            0                       # DTB write accesses
system.cpu_cluster.cpus.itb.write_hits              0                       # DTB write hits
system.cpu_cluster.cpus.itb.write_misses            0                       # DTB write misses
system.cpu_cluster.cpus.itb_walker_cache.avg_blocked_cycles::no_mshrs          nan                       # average number of cycles each access was blocked
system.cpu_cluster.cpus.itb_walker_cache.avg_blocked_cycles::no_targets          nan                       # average number of cycles each access was blocked
system.cpu_cluster.cpus.itb_walker_cache.blocked::no_mshrs            0                       # number of cycles access was blocked
system.cpu_cluster.cpus.itb_walker_cache.blocked::no_targets            0                       # number of cycles access was blocked
system.cpu_cluster.cpus.itb_walker_cache.blocked_cycles::no_mshrs            0                       # number of cycles access was blocked
system.cpu_cluster.cpus.itb_walker_cache.blocked_cycles::no_targets            0                       # number of cycles access was blocked
system.cpu_cluster.cpus.itb_walker_cache.pwrStateResidencyTicks::UNDEFINED    525493750                       # Cumulative time (in ticks) in various power states
system.cpu_cluster.cpus.itb_walker_cache.replacements            0                       # number of replacements
system.cpu_cluster.cpus.itb_walker_cache.tags.avg_refs          nan                       # Average number of references to valid blocks.
system.cpu_cluster.cpus.itb_walker_cache.tags.data_accesses            0                       # Number of data accesses
system.cpu_cluster.cpus.itb_walker_cache.tags.pwrStateResidencyTicks::UNDEFINED    525493750                       # Cumulative time (in ticks) in various power states
system.cpu_cluster.cpus.itb_walker_cache.tags.sampled_refs            0                       # Sample count of references to valid blocks.
system.cpu_cluster.cpus.itb_walker_cache.tags.tag_accesses            0                       # Number of tag accesses
system.cpu_cluster.cpus.itb_walker_cache.tags.tagsinuse            0                       # Cycle average of tags in use
system.cpu_cluster.cpus.itb_walker_cache.tags.total_refs            0                       # Total number of references to valid blocks.
system.cpu_cluster.cpus.itb_walker_cache.tags.warmup_cycle            0                       # Cycle when the warmup percentage was hit.
system.cpu_cluster.cpus.numCycles             2101975                       # number of cpu cycles simulated
system.cpu_cluster.cpus.numFetchSuspends            0                       # Number of times Execute suspended instruction fetching
system.cpu_cluster.cpus.numWorkItemsCompleted            0                       # number of work items this cpu completed
system.cpu_cluster.cpus.numWorkItemsStarted            0                       # number of work items this cpu started
system.cpu_cluster.cpus.op_class_0::No_OpClass            0      0.00%      0.00% # Class of committed instruction
system.cpu_cluster.cpus.op_class_0::IntAlu       888326     51.21%     51.21% # Class of committed instruction
system.cpu_cluster.cpus.op_class_0::IntMult           48      0.00%     51.21% # Class of committed instruction
system.cpu_cluster.cpus.op_class_0::IntDiv            0      0.00%     51.21% # Class of committed instruction
system.cpu_cluster.cpus.op_class_0::FloatAdd            0      0.00%     51.21% # Class of committed instruction
system.cpu_cluster.cpus.op_class_0::FloatCmp            0      0.00%     51.21% # Class of committed instruction
system.cpu_cluster.cpus.op_class_0::FloatCvt            0      0.00%     51.21% # Class of committed instruction
system.cpu_cluster.cpus.op_class_0::FloatMult            0      0.00%     51.21% # Class of committed instruction
system.cpu_cluster.cpus.op_class_0::FloatMultAcc            0      0.00%     51.21% # Class of committed instruction
system.cpu_cluster.cpus.op_class_0::FloatDiv            0      0.00%     51.21% # Class of committed instruction
system.cpu_cluster.cpus.op_class_0::FloatMisc            0      0.00%     51.21% # Class of committed instruction
system.cpu_cluster.cpus.op_class_0::FloatSqrt            0      0.00%     51.21% # Class of committed instruction
system.cpu_cluster.cpus.op_class_0::SimdAdd            0      0.00%     51.21% # Class of committed instruction
system.cpu_cluster.cpus.op_class_0::SimdAddAcc            0      0.00%     51.21% # Class of committed instruction
system.cpu_cluster.cpus.op_class_0::SimdAlu            0      0.00%     51.21% # Class of committed instruction
system.cpu_cluster.cpus.op_class_0::SimdCmp            0      0.00%     51.21% # Class of committed instruction
system.cpu_cluster.cpus.op_class_0::SimdCvt            0      0.00%     51.21% # Class of committed instruction
system.cpu_cluster.cpus.op_class_0::SimdMisc            0      0.00%     51.21% # Class of committed instruction
system.cpu_cluster.cpus.op_class_0::SimdMult            0      0.00%     51.21% # Class of committed instruction
system.cpu_cluster.cpus.op_class_0::SimdMultAcc            0      0.00%     51.21% # Class of committed instruction
system.cpu_cluster.cpus.op_class_0::SimdShift            0      0.00%     51.21% # Class of committed instruction
system.cpu_cluster.cpus.op_class_0::SimdShiftAcc            0      0.00%     51.21% # Class of committed instruction
system.cpu_cluster.cpus.op_class_0::SimdDiv            0      0.00%     51.21% # Class of committed instruction
system.cpu_cluster.cpus.op_class_0::SimdSqrt            0      0.00%     51.21% # Class of committed instruction
system.cpu_cluster.cpus.op_class_0::SimdFloatAdd            0      0.00%     51.21% # Class of committed instruction
system.cpu_cluster.cpus.op_class_0::SimdFloatAlu            0      0.00%     51.21% # Class of committed instruction
system.cpu_cluster.cpus.op_class_0::SimdFloatCmp            0      0.00%     51.21% # Class of committed instruction
system.cpu_cluster.cpus.op_class_0::SimdFloatCvt            0      0.00%     51.21% # Class of committed instruction
system.cpu_cluster.cpus.op_class_0::SimdFloatDiv            0      0.00%     51.21% # Class of committed instruction
system.cpu_cluster.cpus.op_class_0::SimdFloatMisc            0      0.00%     51.21% # Class of committed instruction
system.cpu_cluster.cpus.op_class_0::SimdFloatMult            0      0.00%     51.21% # Class of committed instruction
system.cpu_cluster.cpus.op_class_0::SimdFloatMultAcc            0      0.00%     51.21% # Class of committed instruction
system.cpu_cluster.cpus.op_class_0::SimdFloatSqrt            0      0.00%     51.21% # Class of committed instruction
system.cpu_cluster.cpus.op_class_0::SimdReduceAdd            0      0.00%     51.21% # Class of committed instruction
system.cpu_cluster.cpus.op_class_0::SimdReduceAlu            0      0.00%     51.21% # Class of committed instruction
system.cpu_cluster.cpus.op_class_0::SimdReduceCmp            0      0.00%     51.21% # Class of committed instruction
system.cpu_cluster.cpus.op_class_0::SimdFloatReduceAdd            0      0.00%     51.21% # Class of committed instruction
system.cpu_cluster.cpus.op_class_0::SimdFloatReduceCmp            0      0.00%     51.21% # Class of committed instruction
system.cpu_cluster.cpus.op_class_0::SimdAes            0      0.00%     51.21% # Class of committed instruction
system.cpu_cluster.cpus.op_class_0::SimdAesMix            0      0.00%     51.21% # Class of committed instruction
system.cpu_cluster.cpus.op_class_0::SimdSha1Hash            0      0.00%     51.21% # Class of committed instruction
system.cpu_cluster.cpus.op_class_0::SimdSha1Hash2            0      0.00%     51.21% # Class of committed instruction
system.cpu_cluster.cpus.op_class_0::SimdSha256Hash            0      0.00%     51.21% # Class of committed instruction
system.cpu_cluster.cpus.op_class_0::SimdSha256Hash2            0      0.00%     51.21% # Class of committed instruction
system.cpu_cluster.cpus.op_class_0::SimdShaSigma2            0      0.00%     51.21% # Class of committed instruction
system.cpu_cluster.cpus.op_class_0::SimdShaSigma3            0      0.00%     51.21% # Class of committed instruction
system.cpu_cluster.cpus.op_class_0::SimdPredAlu            0      0.00%     51.21% # Class of committed instruction
system.cpu_cluster.cpus.op_class_0::MemRead       658925     37.98%     89.19% # Class of committed instruction
system.cpu_cluster.cpus.op_class_0::MemWrite       187459     10.81%    100.00% # Class of committed instruction
system.cpu_cluster.cpus.op_class_0::FloatMemRead            0      0.00%    100.00% # Class of committed instruction
system.cpu_cluster.cpus.op_class_0::FloatMemWrite            0      0.00%    100.00% # Class of committed instruction
system.cpu_cluster.cpus.op_class_0::IprAccess            0      0.00%    100.00% # Class of committed instruction
system.cpu_cluster.cpus.op_class_0::InstPrefetch            0      0.00%    100.00% # Class of committed instruction
system.cpu_cluster.cpus.op_class_0::total      1734758                       # Class of committed instruction
system.cpu_cluster.cpus.pwrStateResidencyTicks::ON    525493750                       # Cumulative time (in ticks) in various power states
system.cpu_cluster.cpus.tickCycles            1969813                       # Number of cycles that the object actually ticked
system.cpu_cluster.cpus.workload.numSyscalls           11                       # Number of system calls
system.cpu_cluster.l2.ReadExReq_accesses::.cpu_cluster.cpus.data           68                       # number of ReadExReq accesses(hits+misses)
system.cpu_cluster.l2.ReadExReq_accesses::total           68                       # number of ReadExReq accesses(hits+misses)
system.cpu_cluster.l2.ReadExReq_avg_miss_latency::.cpu_cluster.cpus.data 88525.735294                       # average ReadExReq miss latency
system.cpu_cluster.l2.ReadExReq_avg_miss_latency::total 88525.735294                       # average ReadExReq miss latency
system.cpu_cluster.l2.ReadExReq_avg_mshr_miss_latency::.cpu_cluster.cpus.data 87275.735294                       # average ReadExReq mshr miss latency
system.cpu_cluster.l2.ReadExReq_avg_mshr_miss_latency::total 87275.735294                       # average ReadExReq mshr miss latency
system.cpu_cluster.l2.ReadExReq_miss_latency::.cpu_cluster.cpus.data      6019750                       # number of ReadExReq miss cycles
system.cpu_cluster.l2.ReadExReq_miss_latency::total      6019750                       # number of ReadExReq miss cycles
system.cpu_cluster.l2.ReadExReq_miss_rate::.cpu_cluster.cpus.data            1                       # miss rate for ReadExReq accesses
system.cpu_cluster.l2.ReadExReq_miss_rate::total            1                       # miss rate for ReadExReq accesses
system.cpu_cluster.l2.ReadExReq_misses::.cpu_cluster.cpus.data           68                       # number of ReadExReq misses
system.cpu_cluster.l2.ReadExReq_misses::total           68                       # number of ReadExReq misses
system.cpu_cluster.l2.ReadExReq_mshr_miss_latency::.cpu_cluster.cpus.data      5934750                       # number of ReadExReq MSHR miss cycles
system.cpu_cluster.l2.ReadExReq_mshr_miss_latency::total      5934750                       # number of ReadExReq MSHR miss cycles
system.cpu_cluster.l2.ReadExReq_mshr_miss_rate::.cpu_cluster.cpus.data            1                       # mshr miss rate for ReadExReq accesses
system.cpu_cluster.l2.ReadExReq_mshr_miss_rate::total            1                       # mshr miss rate for ReadExReq accesses
system.cpu_cluster.l2.ReadExReq_mshr_misses::.cpu_cluster.cpus.data           68                       # number of ReadExReq MSHR misses
system.cpu_cluster.l2.ReadExReq_mshr_misses::total           68                       # number of ReadExReq MSHR misses
system.cpu_cluster.l2.ReadSharedReq_accesses::.cpu_cluster.cpus.inst          431                       # number of ReadSharedReq accesses(hits+misses)
system.cpu_cluster.l2.ReadSharedReq_accesses::.cpu_cluster.cpus.data          100                       # number of ReadSharedReq accesses(hits+misses)
system.cpu_cluster.l2.ReadSharedReq_accesses::.cpu_cluster.cpus.dcache.prefetcher            4                       # number of ReadSharedReq accesses(hits+misses)
system.cpu_cluster.l2.ReadSharedReq_accesses::total          535                       # number of ReadSharedReq accesses(hits+misses)
system.cpu_cluster.l2.ReadSharedReq_avg_miss_latency::.cpu_cluster.cpus.inst 68953.473945                       # average ReadSharedReq miss latency
system.cpu_cluster.l2.ReadSharedReq_avg_miss_latency::.cpu_cluster.cpus.data 70175.824176                       # average ReadSharedReq miss latency
system.cpu_cluster.l2.ReadSharedReq_avg_miss_latency::.cpu_cluster.cpus.dcache.prefetcher 67561.750000                       # average ReadSharedReq miss latency
system.cpu_cluster.l2.ReadSharedReq_avg_miss_latency::total 69165.656627                       # average ReadSharedReq miss latency
system.cpu_cluster.l2.ReadSharedReq_avg_mshr_miss_latency::.cpu_cluster.cpus.inst 68034.289277                       # average ReadSharedReq mshr miss latency
system.cpu_cluster.l2.ReadSharedReq_avg_mshr_miss_latency::.cpu_cluster.cpus.data 69205.056180                       # average ReadSharedReq mshr miss latency
system.cpu_cluster.l2.ReadSharedReq_avg_mshr_miss_latency::.cpu_cluster.cpus.dcache.prefetcher 66311.750000                       # average ReadSharedReq mshr miss latency
system.cpu_cluster.l2.ReadSharedReq_avg_mshr_miss_latency::total 68231.269231                       # average ReadSharedReq mshr miss latency
system.cpu_cluster.l2.ReadSharedReq_hits::.cpu_cluster.cpus.inst           28                       # number of ReadSharedReq hits
system.cpu_cluster.l2.ReadSharedReq_hits::.cpu_cluster.cpus.data            9                       # number of ReadSharedReq hits
system.cpu_cluster.l2.ReadSharedReq_hits::total           37                       # number of ReadSharedReq hits
system.cpu_cluster.l2.ReadSharedReq_miss_latency::.cpu_cluster.cpus.inst     27788250                       # number of ReadSharedReq miss cycles
system.cpu_cluster.l2.ReadSharedReq_miss_latency::.cpu_cluster.cpus.data      6386000                       # number of ReadSharedReq miss cycles
system.cpu_cluster.l2.ReadSharedReq_miss_latency::.cpu_cluster.cpus.dcache.prefetcher       270247                       # number of ReadSharedReq miss cycles
system.cpu_cluster.l2.ReadSharedReq_miss_latency::total     34444497                       # number of ReadSharedReq miss cycles
system.cpu_cluster.l2.ReadSharedReq_miss_rate::.cpu_cluster.cpus.inst     0.935035                       # miss rate for ReadSharedReq accesses
system.cpu_cluster.l2.ReadSharedReq_miss_rate::.cpu_cluster.cpus.data     0.910000                       # miss rate for ReadSharedReq accesses
system.cpu_cluster.l2.ReadSharedReq_miss_rate::.cpu_cluster.cpus.dcache.prefetcher            1                       # miss rate for ReadSharedReq accesses
system.cpu_cluster.l2.ReadSharedReq_miss_rate::total     0.930841                       # miss rate for ReadSharedReq accesses
system.cpu_cluster.l2.ReadSharedReq_misses::.cpu_cluster.cpus.inst          403                       # number of ReadSharedReq misses
system.cpu_cluster.l2.ReadSharedReq_misses::.cpu_cluster.cpus.data           91                       # number of ReadSharedReq misses
system.cpu_cluster.l2.ReadSharedReq_misses::.cpu_cluster.cpus.dcache.prefetcher            4                       # number of ReadSharedReq misses
system.cpu_cluster.l2.ReadSharedReq_misses::total          498                       # number of ReadSharedReq misses
system.cpu_cluster.l2.ReadSharedReq_mshr_hits::.cpu_cluster.cpus.inst            2                       # number of ReadSharedReq MSHR hits
system.cpu_cluster.l2.ReadSharedReq_mshr_hits::.cpu_cluster.cpus.data            2                       # number of ReadSharedReq MSHR hits
system.cpu_cluster.l2.ReadSharedReq_mshr_hits::total            4                       # number of ReadSharedReq MSHR hits
system.cpu_cluster.l2.ReadSharedReq_mshr_miss_latency::.cpu_cluster.cpus.inst     27281750                       # number of ReadSharedReq MSHR miss cycles
system.cpu_cluster.l2.ReadSharedReq_mshr_miss_latency::.cpu_cluster.cpus.data      6159250                       # number of ReadSharedReq MSHR miss cycles
system.cpu_cluster.l2.ReadSharedReq_mshr_miss_latency::.cpu_cluster.cpus.dcache.prefetcher       265247                       # number of ReadSharedReq MSHR miss cycles
system.cpu_cluster.l2.ReadSharedReq_mshr_miss_latency::total     33706247                       # number of ReadSharedReq MSHR miss cycles
system.cpu_cluster.l2.ReadSharedReq_mshr_miss_rate::.cpu_cluster.cpus.inst     0.930394                       # mshr miss rate for ReadSharedReq accesses
system.cpu_cluster.l2.ReadSharedReq_mshr_miss_rate::.cpu_cluster.cpus.data     0.890000                       # mshr miss rate for ReadSharedReq accesses
system.cpu_cluster.l2.ReadSharedReq_mshr_miss_rate::.cpu_cluster.cpus.dcache.prefetcher            1                       # mshr miss rate for ReadSharedReq accesses
system.cpu_cluster.l2.ReadSharedReq_mshr_miss_rate::total     0.923364                       # mshr miss rate for ReadSharedReq accesses
system.cpu_cluster.l2.ReadSharedReq_mshr_misses::.cpu_cluster.cpus.inst          401                       # number of ReadSharedReq MSHR misses
system.cpu_cluster.l2.ReadSharedReq_mshr_misses::.cpu_cluster.cpus.data           89                       # number of ReadSharedReq MSHR misses
system.cpu_cluster.l2.ReadSharedReq_mshr_misses::.cpu_cluster.cpus.dcache.prefetcher            4                       # number of ReadSharedReq MSHR misses
system.cpu_cluster.l2.ReadSharedReq_mshr_misses::total          494                       # number of ReadSharedReq MSHR misses
system.cpu_cluster.l2.avg_blocked_cycles::no_mshrs          nan                       # average number of cycles each access was blocked
system.cpu_cluster.l2.avg_blocked_cycles::no_targets          nan                       # average number of cycles each access was blocked
system.cpu_cluster.l2.blocked::no_mshrs             0                       # number of cycles access was blocked
system.cpu_cluster.l2.blocked::no_targets            0                       # number of cycles access was blocked
system.cpu_cluster.l2.blocked_cycles::no_mshrs            0                       # number of cycles access was blocked
system.cpu_cluster.l2.blocked_cycles::no_targets            0                       # number of cycles access was blocked
system.cpu_cluster.l2.demand_accesses::.cpu_cluster.cpus.inst          431                       # number of demand (read+write) accesses
system.cpu_cluster.l2.demand_accesses::.cpu_cluster.cpus.data          168                       # number of demand (read+write) accesses
system.cpu_cluster.l2.demand_accesses::.cpu_cluster.cpus.dcache.prefetcher            4                       # number of demand (read+write) accesses
system.cpu_cluster.l2.demand_accesses::total          603                       # number of demand (read+write) accesses
system.cpu_cluster.l2.demand_avg_miss_latency::.cpu_cluster.cpus.inst 68953.473945                       # average overall miss latency
system.cpu_cluster.l2.demand_avg_miss_latency::.cpu_cluster.cpus.data 78023.584906                       # average overall miss latency
system.cpu_cluster.l2.demand_avg_miss_latency::.cpu_cluster.cpus.dcache.prefetcher 67561.750000                       # average overall miss latency
system.cpu_cluster.l2.demand_avg_miss_latency::total 71491.602473                       # average overall miss latency
system.cpu_cluster.l2.demand_avg_mshr_miss_latency::.cpu_cluster.cpus.inst 68034.289277                       # average overall mshr miss latency
system.cpu_cluster.l2.demand_avg_mshr_miss_latency::.cpu_cluster.cpus.data 77031.847134                       # average overall mshr miss latency
system.cpu_cluster.l2.demand_avg_mshr_miss_latency::.cpu_cluster.cpus.dcache.prefetcher 66311.750000                       # average overall mshr miss latency
system.cpu_cluster.l2.demand_avg_mshr_miss_latency::total 70535.581851                       # average overall mshr miss latency
system.cpu_cluster.l2.demand_hits::.cpu_cluster.cpus.inst           28                       # number of demand (read+write) hits
system.cpu_cluster.l2.demand_hits::.cpu_cluster.cpus.data            9                       # number of demand (read+write) hits
system.cpu_cluster.l2.demand_hits::total           37                       # number of demand (read+write) hits
system.cpu_cluster.l2.demand_miss_latency::.cpu_cluster.cpus.inst     27788250                       # number of demand (read+write) miss cycles
system.cpu_cluster.l2.demand_miss_latency::.cpu_cluster.cpus.data     12405750                       # number of demand (read+write) miss cycles
system.cpu_cluster.l2.demand_miss_latency::.cpu_cluster.cpus.dcache.prefetcher       270247                       # number of demand (read+write) miss cycles
system.cpu_cluster.l2.demand_miss_latency::total     40464247                       # number of demand (read+write) miss cycles
system.cpu_cluster.l2.demand_miss_rate::.cpu_cluster.cpus.inst     0.935035                       # miss rate for demand accesses
system.cpu_cluster.l2.demand_miss_rate::.cpu_cluster.cpus.data     0.946429                       # miss rate for demand accesses
system.cpu_cluster.l2.demand_miss_rate::.cpu_cluster.cpus.dcache.prefetcher            1                       # miss rate for demand accesses
system.cpu_cluster.l2.demand_miss_rate::total     0.938640                       # miss rate for demand accesses
system.cpu_cluster.l2.demand_misses::.cpu_cluster.cpus.inst          403                       # number of demand (read+write) misses
system.cpu_cluster.l2.demand_misses::.cpu_cluster.cpus.data          159                       # number of demand (read+write) misses
system.cpu_cluster.l2.demand_misses::.cpu_cluster.cpus.dcache.prefetcher            4                       # number of demand (read+write) misses
system.cpu_cluster.l2.demand_misses::total          566                       # number of demand (read+write) misses
system.cpu_cluster.l2.demand_mshr_hits::.cpu_cluster.cpus.inst            2                       # number of demand (read+write) MSHR hits
system.cpu_cluster.l2.demand_mshr_hits::.cpu_cluster.cpus.data            2                       # number of demand (read+write) MSHR hits
system.cpu_cluster.l2.demand_mshr_hits::total            4                       # number of demand (read+write) MSHR hits
system.cpu_cluster.l2.demand_mshr_miss_latency::.cpu_cluster.cpus.inst     27281750                       # number of demand (read+write) MSHR miss cycles
system.cpu_cluster.l2.demand_mshr_miss_latency::.cpu_cluster.cpus.data     12094000                       # number of demand (read+write) MSHR miss cycles
system.cpu_cluster.l2.demand_mshr_miss_latency::.cpu_cluster.cpus.dcache.prefetcher       265247                       # number of demand (read+write) MSHR miss cycles
system.cpu_cluster.l2.demand_mshr_miss_latency::total     39640997                       # number of demand (read+write) MSHR miss cycles
system.cpu_cluster.l2.demand_mshr_miss_rate::.cpu_cluster.cpus.inst     0.930394                       # mshr miss rate for demand accesses
system.cpu_cluster.l2.demand_mshr_miss_rate::.cpu_cluster.cpus.data     0.934524                       # mshr miss rate for demand accesses
system.cpu_cluster.l2.demand_mshr_miss_rate::.cpu_cluster.cpus.dcache.prefetcher            1                       # mshr miss rate for demand accesses
system.cpu_cluster.l2.demand_mshr_miss_rate::total     0.932007                       # mshr miss rate for demand accesses
system.cpu_cluster.l2.demand_mshr_misses::.cpu_cluster.cpus.inst          401                       # number of demand (read+write) MSHR misses
[...]
system.mem_ctrls1.readPktSize::2                    0                       # Read request sizes (log2)
system.mem_ctrls1.readPktSize::3                    0                       # Read request sizes (log2)
system.mem_ctrls1.readPktSize::4                    0                       # Read request sizes (log2)
system.mem_ctrls1.readPktSize::5                    0                       # Read request sizes (log2)
system.mem_ctrls1.readPktSize::6                  281                       # Read request sizes (log2)
system.mem_ctrls1.readReqs                        281                       # Number of read requests accepted
system.mem_ctrls1.readRowHitRate                72.95                       # Row buffer hit rate for reads
system.mem_ctrls1.readRowHits                     205                       # Number of row buffer hits during reads
system.mem_ctrls1.servicedByWrQ                     0                       # Number of DRAM read bursts serviced by the write queue
system.mem_ctrls1.totBusLat                   1405000                       # Total ticks spent in databus transfers
system.mem_ctrls1.totGap                    525341000                       # Total gap between requests
system.mem_ctrls1.totMemAccLat               10247500                       # Total ticks spent from burst creation until serviced by the DRAM
system.mem_ctrls1.totQLat                     4978750                       # Total ticks spent queuing
system.mem_ctrls1.wrQLenPdf::0                      0                       # What write queue length does an incoming req see
system.mem_ctrls1.wrQLenPdf::1                      0                       # What write queue length does an incoming req see
system.mem_ctrls1.wrQLenPdf::2                      0                       # What write queue length does an incoming req see
system.mem_ctrls1.wrQLenPdf::3                      0                       # What write queue length does an incoming req see
system.mem_ctrls1.wrQLenPdf::4                      0                       # What write queue length does an incoming req see
system.mem_ctrls1.wrQLenPdf::5                      0                       # What write queue length does an incoming req see
system.mem_ctrls1.wrQLenPdf::6                      0                       # What write queue length does an incoming req see
system.mem_ctrls1.wrQLenPdf::7                      0                       # What write queue length does an incoming req see
system.mem_ctrls1.wrQLenPdf::8                      0                       # What write queue length does an incoming req see
system.mem_ctrls1.wrQLenPdf::9                      0                       # What write queue length does an incoming req see
system.mem_ctrls1.wrQLenPdf::10                     0                       # What write queue length does an incoming req see
system.mem_ctrls1.wrQLenPdf::11                     0                       # What write queue length does an incoming req see
system.mem_ctrls1.wrQLenPdf::12                     0                       # What write queue length does an incoming req see
system.mem_ctrls1.wrQLenPdf::13                     0                       # What write queue length does an incoming req see
system.mem_ctrls1.wrQLenPdf::14                     0                       # What write queue length does an incoming req see
system.mem_ctrls1.wrQLenPdf::15                     0                       # What write queue length does an incoming req see
system.mem_ctrls1.wrQLenPdf::16                     0                       # What write queue length does an incoming req see
system.mem_ctrls1.wrQLenPdf::17                     0                       # What write queue length does an incoming req see
system.mem_ctrls1.wrQLenPdf::18                     0                       # What write queue length does an incoming req see
system.mem_ctrls1.wrQLenPdf::19                     0                       # What write queue length does an incoming req see
system.mem_ctrls1.wrQLenPdf::20                     0                       # What write queue length does an incoming req see
system.mem_ctrls1.wrQLenPdf::21                     0                       # What write queue length does an incoming req see
system.mem_ctrls1.wrQLenPdf::22                     0                       # What write queue length does an incoming req see
system.mem_ctrls1.wrQLenPdf::23                     0                       # What write queue length does an incoming req see
system.mem_ctrls1.wrQLenPdf::24                     0                       # What write queue length does an incoming req see
system.mem_ctrls1.wrQLenPdf::25                     0                       # What write queue length does an incoming req see
system.mem_ctrls1.wrQLenPdf::26                     0                       # What write queue length does an incoming req see
system.mem_ctrls1.wrQLenPdf::27                     0                       # What write queue length does an incoming req see
system.mem_ctrls1.wrQLenPdf::28                     0                       # What write queue length does an incoming req see
system.mem_ctrls1.wrQLenPdf::29                     0                       # What write queue length does an incoming req see
system.mem_ctrls1.wrQLenPdf::30                     0                       # What write queue length does an incoming req see
system.mem_ctrls1.wrQLenPdf::31                     0                       # What write queue length does an incoming req see
system.mem_ctrls1.wrQLenPdf::32                     0                       # What write queue length does an incoming req see
system.mem_ctrls1.wrQLenPdf::33                     0                       # What write queue length does an incoming req see
system.mem_ctrls1.wrQLenPdf::34                     0                       # What write queue length does an incoming req see
system.mem_ctrls1.wrQLenPdf::35                     0                       # What write queue length does an incoming req see
system.mem_ctrls1.wrQLenPdf::36                     0                       # What write queue length does an incoming req see
system.mem_ctrls1.wrQLenPdf::37                     0                       # What write queue length does an incoming req see
system.mem_ctrls1.wrQLenPdf::38                     0                       # What write queue length does an incoming req see
system.mem_ctrls1.wrQLenPdf::39                     0                       # What write queue length does an incoming req see
system.mem_ctrls1.wrQLenPdf::40                     0                       # What write queue length does an incoming req see
system.mem_ctrls1.wrQLenPdf::41                     0                       # What write queue length does an incoming req see
system.mem_ctrls1.wrQLenPdf::42                     0                       # What write queue length does an incoming req see
system.mem_ctrls1.wrQLenPdf::43                     0                       # What write queue length does an incoming req see
system.mem_ctrls1.wrQLenPdf::44                     0                       # What write queue length does an incoming req see
system.mem_ctrls1.wrQLenPdf::45                     0                       # What write queue length does an incoming req see
system.mem_ctrls1.wrQLenPdf::46                     0                       # What write queue length does an incoming req see
system.mem_ctrls1.wrQLenPdf::47                     0                       # What write queue length does an incoming req see
system.mem_ctrls1.wrQLenPdf::48                     0                       # What write queue length does an incoming req see
system.mem_ctrls1.wrQLenPdf::49                     0                       # What write queue length does an incoming req see
system.mem_ctrls1.wrQLenPdf::50                     0                       # What write queue length does an incoming req see
system.mem_ctrls1.wrQLenPdf::51                     0                       # What write queue length does an incoming req see
system.mem_ctrls1.wrQLenPdf::52                     0                       # What write queue length does an incoming req see
system.mem_ctrls1.wrQLenPdf::53                     0                       # What write queue length does an incoming req see
system.mem_ctrls1.wrQLenPdf::54                     0                       # What write queue length does an incoming req see
system.mem_ctrls1.wrQLenPdf::55                     0                       # What write queue length does an incoming req see
system.mem_ctrls1.wrQLenPdf::56                     0                       # What write queue length does an incoming req see
system.mem_ctrls1.wrQLenPdf::57                     0                       # What write queue length does an incoming req see
system.mem_ctrls1.wrQLenPdf::58                     0                       # What write queue length does an incoming req see
system.mem_ctrls1.wrQLenPdf::59                     0                       # What write queue length does an incoming req see
system.mem_ctrls1.wrQLenPdf::60                     0                       # What write queue length does an incoming req see
system.mem_ctrls1.wrQLenPdf::61                     0                       # What write queue length does an incoming req see
system.mem_ctrls1.wrQLenPdf::62                     0                       # What write queue length does an incoming req see
system.mem_ctrls1.wrQLenPdf::63                     0                       # What write queue length does an incoming req see
system.mem_ctrls1.writeBursts                       0                       # Number of DRAM write bursts, including those merged in the write queue
system.mem_ctrls1.writePktSize::0                   0                       # Write request sizes (log2)
system.mem_ctrls1.writePktSize::1                   0                       # Write request sizes (log2)
system.mem_ctrls1.writePktSize::2                   0                       # Write request sizes (log2)
system.mem_ctrls1.writePktSize::3                   0                       # Write request sizes (log2)
system.mem_ctrls1.writePktSize::4                   0                       # Write request sizes (log2)
system.mem_ctrls1.writePktSize::5                   0                       # Write request sizes (log2)
system.mem_ctrls1.writePktSize::6                   0                       # Write request sizes (log2)
system.mem_ctrls1.writeReqs                         0                       # Number of write requests accepted
system.mem_ctrls1.writeRowHitRate                 nan                       # Row buffer hit rate for writes
system.mem_ctrls1.writeRowHits                      0                       # Number of row buffer hits during writes
system.mem_ctrls1_0.actBackEnergy             3580170                       # Energy for active background per rank (pJ)
system.mem_ctrls1_0.actEnergy                  357000                       # Energy for activate commands per rank (pJ)
system.mem_ctrls1_0.actPowerDownEnergy       14667240                       # Energy for active power-down per rank (pJ)
system.mem_ctrls1_0.averagePower           271.626313                       # Core power per rank (mW)
system.mem_ctrls1_0.memoryStateTime::IDLE       310000                       # Time in different power states
system.mem_ctrls1_0.memoryStateTime::REF      1560000                       # Time in different power states
system.mem_ctrls1_0.memoryStateTime::SREF    473336750                       # Time in different power states
system.mem_ctrls1_0.memoryStateTime::PRE_PDN     11636500                       # Time in different power states
system.mem_ctrls1_0.memoryStateTime::ACT      6484250                       # Time in different power states
system.mem_ctrls1_0.memoryStateTime::ACT_PDN     32166250                       # Time in different power states
system.mem_ctrls1_0.preBackEnergy              193440                       # Energy for precharge background per rank (pJ)
system.mem_ctrls1_0.preEnergy                  166980                       # Energy for precharge commands per rank (pJ)
system.mem_ctrls1_0.prePowerDownEnergy        4468320                       # Energy for precharge power-down per rank (pJ)
system.mem_ctrls1_0.readEnergy                1463700                       # Energy for read commands per rank (pJ)
system.mem_ctrls1_0.refreshEnergy        3687840.000000                       # Energy for refresh commands per rank (pJ)
system.mem_ctrls1_0.selfRefreshEnergy       114153240                       # Energy for self refresh per rank (pJ)
system.mem_ctrls1_0.totalEnergy             142737930                       # Total energy per rank (pJ)
system.mem_ctrls1_0.totalIdleTime           517043000                       # Total Idle time Per DRAM Rank
system.mem_ctrls1_0.writeEnergy                     0                       # Energy for write commands per rank (pJ)
system.mem_ctrls1_1.actBackEnergy             1611390                       # Energy for active background per rank (pJ)
system.mem_ctrls1_1.actEnergy                  185640                       # Energy for activate commands per rank (pJ)
system.mem_ctrls1_1.actPowerDownEnergy       12951540                       # Energy for active power-down per rank (pJ)
system.mem_ctrls1_1.averagePower           264.591586                       # Core power per rank (mW)
system.mem_ctrls1_1.memoryStateTime::IDLE       384000                       # Time in different power states
system.mem_ctrls1_1.memoryStateTime::REF      1300000                       # Time in different power states
system.mem_ctrls1_1.memoryStateTime::SREF    482613750                       # Time in different power states
system.mem_ctrls1_1.memoryStateTime::PRE_PDN     10433500                       # Time in different power states
system.mem_ctrls1_1.memoryStateTime::ACT      2349500                       # Time in different power states
system.mem_ctrls1_1.memoryStateTime::ACT_PDN     28413000                       # Time in different power states
system.mem_ctrls1_1.preBackEnergy              195840                       # Energy for precharge background per rank (pJ)
system.mem_ctrls1_1.preEnergy                   94875                       # Energy for precharge commands per rank (pJ)
system.mem_ctrls1_1.prePowerDownEnergy        4006560                       # Energy for precharge power-down per rank (pJ)
system.mem_ctrls1_1.readEnergy                 542640                       # Energy for read commands per rank (pJ)
system.mem_ctrls1_1.refreshEnergy        3073200.000000                       # Energy for refresh commands per rank (pJ)
system.mem_ctrls1_1.selfRefreshEnergy       116379540                       # Energy for self refresh per rank (pJ)
system.mem_ctrls1_1.totalEnergy             139041225                       # Total energy per rank (pJ)
system.mem_ctrls1_1.totalIdleTime           518977250                       # Total Idle time Per DRAM Rank
system.mem_ctrls1_1.writeEnergy                     0                       # Energy for write commands per rank (pJ)
system.membus.pkt_count_system.cpu_cluster.l2.mem_side::system.mem_ctrls0.port          560                       # Packet count per connected master and slave (bytes)
system.membus.pkt_count_system.cpu_cluster.l2.mem_side::system.mem_ctrls1.port          562                       # Packet count per connected master and slave (bytes)
system.membus.pkt_count_system.cpu_cluster.l2.mem_side::total         1122                       # Packet count per connected master and slave (bytes)
system.membus.pkt_count::total                   1122                       # Packet count per connected master and slave (bytes)
system.membus.pkt_size_system.cpu_cluster.l2.mem_side::system.mem_ctrls0.port        17920                       # Cumulative packet size per connected master and slave (bytes)
system.membus.pkt_size_system.cpu_cluster.l2.mem_side::system.mem_ctrls1.port        17984                       # Cumulative packet size per connected master and slave (bytes)
system.membus.pkt_size_system.cpu_cluster.l2.mem_side::total        35904                       # Cumulative packet size per connected master and slave (bytes)
system.membus.pkt_size::total                   35904                       # Cumulative packet size per connected master and slave (bytes)
system.membus.pwrStateResidencyTicks::UNDEFINED    525493750                       # Cumulative time (in ticks) in various power states
system.membus.reqLayer0.occupancy              337502                       # Layer occupancy (ticks)
system.membus.reqLayer0.utilization               0.1                       # Layer utilization (%)
system.membus.reqLayer1.occupancy              338251                       # Layer occupancy (ticks)
system.membus.reqLayer1.utilization               0.1                       # Layer utilization (%)
system.membus.respLayer1.occupancy            2988250                       # Layer occupancy (ticks)
system.membus.respLayer1.utilization              0.6                       # Layer utilization (%)
system.membus.snoopTraffic                          0                       # Total snoop traffic (bytes)
system.membus.snoop_fanout::samples               561                       # Request fanout histogram
system.membus.snoop_fanout::mean                    0                       # Request fanout histogram
system.membus.snoop_fanout::stdev                   0                       # Request fanout histogram
system.membus.snoop_fanout::underflows              0      0.00%      0.00% # Request fanout histogram
system.membus.snoop_fanout::0                     561    100.00%    100.00% # Request fanout histogram
system.membus.snoop_fanout::1                       0      0.00%    100.00% # Request fanout histogram
system.membus.snoop_fanout::overflows               0      0.00%    100.00% # Request fanout histogram
system.membus.snoop_fanout::min_value               0                       # Request fanout histogram
system.membus.snoop_fanout::max_value               0                       # Request fanout histogram
system.membus.snoop_fanout::total                 561                       # Request fanout histogram
system.membus.snoop_filter.hit_multi_requests            0                       # Number of requests hitting in the snoop filter with multiple (>1) holders of the requested data.
system.membus.snoop_filter.hit_multi_snoops            0                       # Number of snoops hitting in the snoop filter with multiple (>1) holders of the requested data.
system.membus.snoop_filter.hit_single_requests            0                       # Number of requests hitting in the snoop filter with a single holder of the requested data.
system.membus.snoop_filter.hit_single_snoops            0                       # Number of snoops hitting in the snoop filter with a single holder of the requested data.
system.membus.snoop_filter.tot_requests           561                       # Total number of requests made to the snoop filter.
system.membus.snoop_filter.tot_snoops               0                       # Total number of snoops made to the snoop filter.
system.membus.snoops                                0                       # Total snoops (count)
system.membus.trans_dist::ReadResp                493                       # Transaction distribution
system.membus.trans_dist::ReadExReq                68                       # Transaction distribution
system.membus.trans_dist::ReadExResp               68                       # Transaction distribution
system.membus.trans_dist::ReadSharedReq           493                       # Transaction distribution
system.voltage_domain.voltage                3.300000                       # Voltage in Volts

---------- End Simulation Statistics   ----------
