
---------- Begin Simulation Statistics ----------
final_tick                                  674328750                       # Number of ticks from beginning of simulation (restored from checkpoints and never reset)
host_inst_rate                                 273390                       # Simulator instruction rate (inst/s)
host_mem_usage                                2254700                       # Number of bytes of host memory used
host_op_rate                                   274946                       # Simulator op (including micro ops) rate (op/s)
host_seconds                                     6.96                       # Real time elapsed on the host
host_tick_rate                               96949160                       # Simulator tick rate (ticks/s)
sim_freq                                 1000000000000                       # Frequency of simulated ticks
sim_insts                                     1901527                       # Number of instructions simulated
sim_ops                                       1912379                       # Number of ops (including micro ops) simulated
sim_seconds                                  0.000674                       # Number of seconds simulated
sim_ticks                                   674328750                       # Number of ticks simulated
system.clk_domain.clock                          1000                       # Clock period in ticks
system.cpu_cluster.clk_domain.clock               250                       # Clock period in ticks
system.cpu_cluster.cpus.branchPred.BTBCorrect            0                       # Number of correct BTB predictions (this stat may not work properly.
system.cpu_cluster.cpus.branchPred.BTBHitPct    98.428916                       # BTB Hit Percentage
system.cpu_cluster.cpus.branchPred.BTBHits        77937                       # Number of BTB hits
system.cpu_cluster.cpus.branchPred.BTBLookups        79181                       # Number of BTB lookups
system.cpu_cluster.cpus.branchPred.BTBMisses         1244                       # Number of BTB misses
system.cpu_cluster.cpus.branchPred.BTBMissesPct     1.571084                       # BTB Miss Percentage
system.cpu_cluster.cpus.branchPred.RASInCorrect            1                       # Number of incorrect RAS predictions.
system.cpu_cluster.cpus.branchPred.condIncorrect         2256                       # Number of conditional branches incorrect
system.cpu_cluster.cpus.branchPred.condPredicted        72513                       # Number of conditional branches predicted
system.cpu_cluster.cpus.branchPred.indirectHits           13                       # Number of indirect target hits.
system.cpu_cluster.cpus.branchPred.indirectLookups          152                       # Number of indirect predictor lookups.
system.cpu_cluster.cpus.branchPred.indirectMisses          139                       # Number of indirect misses.
system.cpu_cluster.cpus.branchPred.lookups        85020                       # Number of BP lookups
system.cpu_cluster.cpus.branchPred.usedRAS         5135                       # Number of times the RAS was used to get a target.
system.cpu_cluster.cpus.branchPredindirectMispredicted           65                       # Number of mispredicted indirect branches.
system.cpu_cluster.cpus.committedInsts        1901527                       # Number of instructions committed
system.cpu_cluster.cpus.committedOps          1912379                       # Number of ops (including micro ops) committed
system.cpu_cluster.cpus.cpi                  1.418499                       # CPI: cycles per instruction
system.cpu_cluster.cpus.dcache.HardPFReq_avg_mshr_miss_latency::.cpu_cluster.cpus.dcache.prefetcher 168096.822785                       # average HardPFReq mshr miss latency
system.cpu_cluster.cpus.dcache.HardPFReq_avg_mshr_miss_latency::total 168096.822785                       # average HardPFReq mshr miss latency
system.cpu_cluster.cpus.dcache.HardPFReq_mshr_miss_latency::.cpu_cluster.cpus.dcache.prefetcher     13279649                       # number of HardPFReq MSHR miss cycles
system.cpu_cluster.cpus.dcache.HardPFReq_mshr_miss_latency::total     13279649                       # number of HardPFReq MSHR miss cycles
system.cpu_cluster.cpus.dcache.HardPFReq_mshr_miss_rate::.cpu_cluster.cpus.dcache.prefetcher          inf                       # mshr miss rate for HardPFReq accesses
system.cpu_cluster.cpus.dcache.HardPFReq_mshr_miss_rate::total          inf                       # mshr miss rate for HardPFReq accesses
system.cpu_cluster.cpus.dcache.HardPFReq_mshr_misses::.cpu_cluster.cpus.dcache.prefetcher           79                       # number of HardPFReq MSHR misses
system.cpu_cluster.cpus.dcache.HardPFReq_mshr_misses::total           79                       # number of HardPFReq MSHR misses
system.cpu_cluster.cpus.dcache.LoadLockedReq_accesses::.cpu_cluster.cpus.data           18                       # number of LoadLockedReq accesses(hits+misses)
system.cpu_cluster.cpus.dcache.LoadLockedReq_accesses::total           18                       # number of LoadLockedReq accesses(hits+misses)
system.cpu_cluster.cpus.dcache.LoadLockedReq_hits::.cpu_cluster.cpus.data           18                       # number of LoadLockedReq hits
system.cpu_cluster.cpus.dcache.LoadLockedReq_hits::total           18                       # number of LoadLockedReq hits
system.cpu_cluster.cpus.dcache.ReadReq_accesses::.cpu_cluster.cpus.data       836920                       # number of ReadReq accesses(hits+misses)
system.cpu_cluster.cpus.dcache.ReadReq_accesses::total       836920                       # number of ReadReq accesses(hits+misses)
system.cpu_cluster.cpus.dcache.ReadReq_avg_miss_latency::.cpu_cluster.cpus.data 42937.931034                       # average ReadReq miss latency
system.cpu_cluster.cpus.dcache.ReadReq_avg_miss_latency::total 42937.931034                       # average ReadReq miss latency
system.cpu_cluster.cpus.dcache.ReadReq_avg_mshr_miss_latency::.cpu_cluster.cpus.data 42399.635036                       # average ReadReq mshr miss latency
system.cpu_cluster.cpus.dcache.ReadReq_avg_mshr_miss_latency::total 42399.635036                       # average ReadReq mshr miss latency
system.cpu_cluster.cpus.dcache.ReadReq_hits::.cpu_cluster.cpus.data       836775                       # number of ReadReq hits
system.cpu_cluster.cpus.dcache.ReadReq_hits::total       836775                       # number of ReadReq hits
system.cpu_cluster.cpus.dcache.ReadReq_miss_latency::.cpu_cluster.cpus.data      6226000                       # number of ReadReq miss cycles
system.cpu_cluster.cpus.dcache.ReadReq_miss_latency::total      6226000                       # number of ReadReq miss cycles
system.cpu_cluster.cpus.dcache.ReadReq_miss_rate::.cpu_cluster.cpus.data     0.000173                       # miss rate for ReadReq accesses
system.cpu_cluster.cpus.dcache.ReadReq_miss_rate::total     0.000173                       # miss rate for ReadReq accesses
system.cpu_cluster.cpus.dcache.ReadReq_misses::.cpu_cluster.cpus.data          145                       # number of ReadReq misses
system.cpu_cluster.cpus.dcache.ReadReq_misses::total          145                       # number of ReadReq misses
system.cpu_cluster.cpus.dcache.ReadReq_mshr_hits::.cpu_cluster.cpus.data            8                       # number of ReadReq MSHR hits
system.cpu_cluster.cpus.dcache.ReadReq_mshr_hits::total            8                       # number of ReadReq MSHR hits
system.cpu_cluster.cpus.dcache.ReadReq_mshr_miss_latency::.cpu_cluster.cpus.data      5808750                       # number of ReadReq MSHR miss cycles
system.cpu_cluster.cpus.dcache.ReadReq_mshr_miss_latency::total      5808750                       # number of ReadReq MSHR miss cycles
system.cpu_cluster.cpus.dcache.ReadReq_mshr_miss_rate::.cpu_cluster.cpus.data     0.000164                       # mshr miss rate for ReadReq accesses
system.cpu_cluster.cpus.dcache.ReadReq_mshr_miss_rate::total     0.000164                       # mshr miss rate for ReadReq accesses
system.cpu_cluster.cpus.dcache.ReadReq_mshr_misses::.cpu_cluster.cpus.data          137                       # number of ReadReq MSHR misses
system.cpu_cluster.cpus.dcache.ReadReq_mshr_misses::total          137                       # number of ReadReq MSHR misses
system.cpu_cluster.cpus.dcache.SoftPFReq_accesses::.cpu_cluster.cpus.data           34                       # number of SoftPFReq accesses(hits+misses)
system.cpu_cluster.cpus.dcache.SoftPFReq_accesses::total           34                       # number of SoftPFReq accesses(hits+misses)
system.cpu_cluster.cpus.dcache.SoftPFReq_avg_mshr_miss_latency::.cpu_cluster.cpus.data        70200                       # average SoftPFReq mshr miss latency
system.cpu_cluster.cpus.dcache.SoftPFReq_avg_mshr_miss_latency::total        70200                       # average SoftPFReq mshr miss latency
system.cpu_cluster.cpus.dcache.SoftPFReq_hits::.cpu_cluster.cpus.data           19                       # number of SoftPFReq hits
system.cpu_cluster.cpus.dcache.SoftPFReq_hits::total           19                       # number of SoftPFReq hits
system.cpu_cluster.cpus.dcache.SoftPFReq_miss_rate::.cpu_cluster.cpus.data     0.441176                       # miss rate for SoftPFReq accesses
system.cpu_cluster.cpus.dcache.SoftPFReq_miss_rate::total     0.441176                       # miss rate for SoftPFReq accesses
system.cpu_cluster.cpus.dcache.SoftPFReq_misses::.cpu_cluster.cpus.data           15                       # number of SoftPFReq misses
system.cpu_cluster.cpus.dcache.SoftPFReq_misses::total           15                       # number of SoftPFReq misses
system.cpu_cluster.cpus.dcache.SoftPFReq_mshr_miss_latency::.cpu_cluster.cpus.data       702000                       # number of SoftPFReq MSHR miss cycles
system.cpu_cluster.cpus.dcache.SoftPFReq_mshr_miss_latency::total       702000                       # number of SoftPFReq MSHR miss cycles
system.cpu_cluster.cpus.dcache.SoftPFReq_mshr_miss_rate::.cpu_cluster.cpus.data     0.294118                       # mshr miss rate for SoftPFReq accesses
system.cpu_cluster.cpus.dcache.SoftPFReq_mshr_miss_rate::total     0.294118                       # mshr miss rate for SoftPFReq accesses
system.cpu_cluster.cpus.dcache.SoftPFReq_mshr_misses::.cpu_cluster.cpus.data           10                       # number of SoftPFReq MSHR misses
system.cpu_cluster.cpus.dcache.SoftPFReq_mshr_misses::total           10                       # number of SoftPFReq MSHR misses
system.cpu_cluster.cpus.dcache.StoreCondReq_accesses::.cpu_cluster.cpus.data           18                       # number of StoreCondReq accesses(hits+misses)
system.cpu_cluster.cpus.dcache.StoreCondReq_accesses::total           18                       # number of StoreCondReq accesses(hits+misses)
system.cpu_cluster.cpus.dcache.StoreCondReq_hits::.cpu_cluster.cpus.data           18                       # number of StoreCondReq hits
system.cpu_cluster.cpus.dcache.StoreCondReq_hits::total           18                       # number of StoreCondReq hits
system.cpu_cluster.cpus.dcache.WriteReq_accesses::.cpu_cluster.cpus.data       160149                       # number of WriteReq accesses(hits+misses)
system.cpu_cluster.cpus.dcache.WriteReq_accesses::total       160149                       # number of WriteReq accesses(hits+misses)
system.cpu_cluster.cpus.dcache.WriteReq_avg_miss_latency::.cpu_cluster.cpus.data 107798.981191                       # average WriteReq miss latency
system.cpu_cluster.cpus.dcache.WriteReq_avg_miss_latency::total 107798.981191                       # average WriteReq miss latency
system.cpu_cluster.cpus.dcache.WriteReq_avg_mshr_miss_latency::.cpu_cluster.cpus.data 110903.903904                       # average WriteReq mshr miss latency
system.cpu_cluster.cpus.dcache.WriteReq_avg_mshr_miss_latency::total 110903.903904                       # average WriteReq mshr miss latency
system.cpu_cluster.cpus.dcache.WriteReq_hits::.cpu_cluster.cpus.data       159511                       # number of WriteReq hits
system.cpu_cluster.cpus.dcache.WriteReq_hits::total       159511                       # number of WriteReq hits
system.cpu_cluster.cpus.dcache.WriteReq_miss_latency::.cpu_cluster.cpus.data     68775750                       # number of WriteReq miss cycles
system.cpu_cluster.cpus.dcache.WriteReq_miss_latency::total     68775750                       # number of WriteReq miss cycles
system.cpu_cluster.cpus.dcache.WriteReq_miss_rate::.cpu_cluster.cpus.data     0.003984                       # miss rate for WriteReq accesses
system.cpu_cluster.cpus.dcache.WriteReq_miss_rate::total     0.003984                       # miss rate for WriteReq accesses
system.cpu_cluster.cpus.dcache.WriteReq_misses::.cpu_cluster.cpus.data          638                       # number of WriteReq misses
system.cpu_cluster.cpus.dcache.WriteReq_misses::total          638                       # number of WriteReq misses
system.cpu_cluster.cpus.dcache.WriteReq_mshr_hits::.cpu_cluster.cpus.data          305                       # number of WriteReq MSHR hits
system.cpu_cluster.cpus.dcache.WriteReq_mshr_hits::total          305                       # number of WriteReq MSHR hits
system.cpu_cluster.cpus.dcache.WriteReq_mshr_miss_latency::.cpu_cluster.cpus.data     36931000                       # number of WriteReq MSHR miss cycles
system.cpu_cluster.cpus.dcache.WriteReq_mshr_miss_latency::total     36931000                       # number of WriteReq MSHR miss cycles
system.cpu_cluster.cpus.dcache.WriteReq_mshr_miss_rate::.cpu_cluster.cpus.data     0.002079                       # mshr miss rate for WriteReq accesses
system.cpu_cluster.cpus.dcache.WriteReq_mshr_miss_rate::total     0.002079                       # mshr miss rate for WriteReq accesses
system.cpu_cluster.cpus.dcache.WriteReq_mshr_misses::.cpu_cluster.cpus.data          333                       # number of WriteReq MSHR misses
system.cpu_cluster.cpus.dcache.WriteReq_mshr_misses::total          333                       # number of WriteReq MSHR misses
system.cpu_cluster.cpus.dcache.avg_blocked_cycles::no_mshrs          nan                       # average number of cycles each access was blocked
system.cpu_cluster.cpus.dcache.avg_blocked_cycles::no_targets          nan                       # average number of cycles each access was blocked
system.cpu_cluster.cpus.dcache.blocked::no_mshrs            0                       # number of cycles access was blocked
system.cpu_cluster.cpus.dcache.blocked::no_targets            0                       # number of cycles access was blocked
system.cpu_cluster.cpus.dcache.blocked_cycles::no_mshrs            0                       # number of cycles access was blocked
system.cpu_cluster.cpus.dcache.blocked_cycles::no_targets            0                       # number of cycles access was blocked
system.cpu_cluster.cpus.dcache.demand_accesses::.cpu_cluster.cpus.data       997069                       # number of demand (read+write) accesses
system.cpu_cluster.cpus.dcache.demand_accesses::total       997069                       # number of demand (read+write) accesses
system.cpu_cluster.cpus.dcache.demand_avg_miss_latency::.cpu_cluster.cpus.data 95787.675607                       # average overall miss latency
system.cpu_cluster.cpus.dcache.demand_avg_miss_latency::total 95787.675607                       # average overall miss latency
system.cpu_cluster.cpus.dcache.demand_avg_mshr_miss_latency::.cpu_cluster.cpus.data 90935.638298                       # average overall mshr miss latency
system.cpu_cluster.cpus.dcache.demand_avg_mshr_miss_latency::total 90935.638298                       # average overall mshr miss latency
system.cpu_cluster.cpus.dcache.demand_hits::.cpu_cluster.cpus.data       996286                       # number of demand (read+write) hits
system.cpu_cluster.cpus.dcache.demand_hits::total       996286                       # number of demand (read+write) hits
system.cpu_cluster.cpus.dcache.demand_miss_latency::.cpu_cluster.cpus.data     75001750                       # number of demand (read+write) miss cycles
system.cpu_cluster.cpus.dcache.demand_miss_latency::total     75001750                       # number of demand (read+write) miss cycles
system.cpu_cluster.cpus.dcache.demand_miss_rate::.cpu_cluster.cpus.data     0.000785                       # miss rate for demand accesses
system.cpu_cluster.cpus.dcache.demand_miss_rate::total     0.000785                       # miss rate for demand accesses
system.cpu_cluster.cpus.dcache.demand_misses::.cpu_cluster.cpus.data          783                       # number of demand (read+write) misses
system.cpu_cluster.cpus.dcache.demand_misses::total          783                       # number of demand (read+write) misses
system.cpu_cluster.cpus.dcache.demand_mshr_hits::.cpu_cluster.cpus.data          313                       # number of demand (read+write) MSHR hits
system.cpu_cluster.cpus.dcache.demand_mshr_hits::total          313                       # number of demand (read+write) MSHR hits
system.cpu_cluster.cpus.dcache.demand_mshr_miss_latency::.cpu_cluster.cpus.data     42739750                       # number of demand (read+write) MSHR miss cycles
system.cpu_cluster.cpus.dcache.demand_mshr_miss_latency::total     42739750                       # number of demand (read+write) MSHR miss cycles
system.cpu_cluster.cpus.dcache.demand_mshr_miss_rate::.cpu_cluster.cpus.data     0.000471                       # mshr miss rate for demand accesses
system.cpu_cluster.cpus.dcache.demand_mshr_miss_rate::total     0.000471                       # mshr miss rate for demand accesses
system.cpu_cluster.cpus.dcache.demand_mshr_misses::.cpu_cluster.cpus.data          470                       # number of demand (read+write) MSHR misses
system.cpu_cluster.cpus.dcache.demand_mshr_misses::total          470                       # number of demand (read+write) MSHR misses
system.cpu_cluster.cpus.dcache.overall_accesses::.cpu_cluster.cpus.data       997103                       # number of overall (read+write) accesses
system.cpu_cluster.cpus.dcache.overall_accesses::total       997103                       # number of overall (read+write) accesses
system.cpu_cluster.cpus.dcache.overall_avg_miss_latency::.cpu_cluster.cpus.data 93987.155388                       # average overall miss latency
system.cpu_cluster.cpus.dcache.overall_avg_miss_latency::total 93987.155388                       # average overall miss latency
system.cpu_cluster.cpus.dcache.overall_avg_mshr_miss_latency::.cpu_cluster.cpus.data 90503.645833                       # average overall mshr miss latency
system.cpu_cluster.cpus.dcache.overall_avg_mshr_miss_latency::.cpu_cluster.cpus.dcache.prefetcher 168096.822785                       # average overall mshr miss latency
system.cpu_cluster.cpus.dcache.overall_avg_mshr_miss_latency::total 101469.407871                       # average overall mshr miss latency
system.cpu_cluster.cpus.dcache.overall_hits::.cpu_cluster.cpus.data       996305                       # number of overall hits
system.cpu_cluster.cpus.dcache.overall_hits::total       996305                       # number of overall hits
system.cpu_cluster.cpus.dcache.overall_miss_latency::.cpu_cluster.cpus.data     75001750                       # number of overall miss cycles
system.cpu_cluster.cpus.dcache.overall_miss_latency::total     75001750                       # number of overall miss cycles
system.cpu_cluster.cpus.dcache.overall_miss_rate::.cpu_cluster.cpus.data     0.000800                       # miss rate for overall accesses
system.cpu_cluster.cpus.dcache.overall_miss_rate::total     0.000800                       # miss rate for overall accesses
system.cpu_cluster.cpus.dcache.overall_misses::.cpu_cluster.cpus.data          798                       # number of overall misses
system.cpu_cluster.cpus.dcache.overall_misses::total          798                       # number of overall misses
system.cpu_cluster.cpus.dcache.overall_mshr_hits::.cpu_cluster.cpus.data          313                       # number of overall MSHR hits
system.cpu_cluster.cpus.dcache.overall_mshr_hits::total          313                       # number of overall MSHR hits
system.cpu_cluster.cpus.dcache.overall_mshr_miss_latency::.cpu_cluster.cpus.data     43441750                       # number of overall MSHR miss cycles
system.cpu_cluster.cpus.dcache.overall_mshr_miss_latency::.cpu_cluster.cpus.dcache.prefetcher     13279649                       # number of overall MSHR miss cycles
system.cpu_cluster.cpus.dcache.overall_mshr_miss_latency::total     56721399                       # number of overall MSHR miss cycles
system.cpu_cluster.cpus.dcache.overall_mshr_miss_rate::.cpu_cluster.cpus.data     0.000481                       # mshr miss rate for overall accesses
system.cpu_cluster.cpus.dcache.overall_mshr_miss_rate::.cpu_cluster.cpus.dcache.prefetcher          inf                       # mshr miss rate for overall accesses
system.cpu_cluster.cpus.dcache.overall_mshr_miss_rate::total     0.000561                       # mshr miss rate for overall accesses
system.cpu_cluster.cpus.dcache.overall_mshr_misses::.cpu_cluster.cpus.data          480                       # number of overall MSHR misses
system.cpu_cluster.cpus.dcache.overall_mshr_misses::.cpu_cluster.cpus.dcache.prefetcher           79                       # number of overall MSHR misses
system.cpu_cluster.cpus.dcache.overall_mshr_misses::total          559                       # number of overall MSHR misses
system.cpu_cluster.cpus.dcache.prefetcher.num_hwpf_issued          129                       # number of hwpf issued
system.cpu_cluster.cpus.dcache.prefetcher.pfBufferHit           51                       # number of redundant prefetches already in prefetch queue
system.cpu_cluster.cpus.dcache.prefetcher.pfIdentified          180                       # number of prefetch candidates identified
system.cpu_cluster.cpus.dcache.prefetcher.pfInCache            0                       # number of redundant prefetches already in cache/mshr dropped
system.cpu_cluster.cpus.dcache.prefetcher.pfRemovedFull            0                       # number of prefetches dropped due to prefetch queue size
system.cpu_cluster.cpus.dcache.prefetcher.pfSpanPage            8                       # number of prefetches not generated due to page crossing
system.cpu_cluster.cpus.dcache.prefetcher.pwrStateResidencyTicks::UNDEFINED    674328750                       # Cumulative time (in ticks) in various power states
system.cpu_cluster.cpus.dcache.pwrStateResidencyTicks::UNDEFINED    674328750                       # Cumulative time (in ticks) in various power states
system.cpu_cluster.cpus.dcache.replacements          303                       # number of replacements
system.cpu_cluster.cpus.dcache.tags.age_task_id_blocks_1022::1           18                       # Occupied blocks per task id
system.cpu_cluster.cpus.dcache.tags.age_task_id_blocks_1022::2           33                       # Occupied blocks per task id
system.cpu_cluster.cpus.dcache.tags.age_task_id_blocks_1024::0           43                       # Occupied blocks per task id
system.cpu_cluster.cpus.dcache.tags.age_task_id_blocks_1024::1           27                       # Occupied blocks per task id
system.cpu_cluster.cpus.dcache.tags.age_task_id_blocks_1024::2          135                       # Occupied blocks per task id
system.cpu_cluster.cpus.dcache.tags.avg_refs  1783.363148                       # Average number of references to valid blocks.
system.cpu_cluster.cpus.dcache.tags.data_accesses      7977671                       # Number of data accesses
system.cpu_cluster.cpus.dcache.tags.occ_blocks::.cpu_cluster.cpus.data   220.404720                       # Average occupied blocks per requestor
system.cpu_cluster.cpus.dcache.tags.occ_blocks::.cpu_cluster.cpus.dcache.prefetcher    26.022582                       # Average occupied blocks per requestor
system.cpu_cluster.cpus.dcache.tags.occ_percent::.cpu_cluster.cpus.data     0.860956                       # Average percentage of cache occupancy
system.cpu_cluster.cpus.dcache.tags.occ_percent::.cpu_cluster.cpus.dcache.prefetcher     0.101651                       # Average percentage of cache occupancy
system.cpu_cluster.cpus.dcache.tags.occ_percent::total     0.962607                       # Average percentage of cache occupancy
system.cpu_cluster.cpus.dcache.tags.occ_task_id_blocks::1022           51                       # Occupied blocks per task id
system.cpu_cluster.cpus.dcache.tags.occ_task_id_blocks::1024          205                       # Occupied blocks per task id
system.cpu_cluster.cpus.dcache.tags.occ_task_id_percent::1022     0.199219                       # Percentage of cache occupancy per task id
system.cpu_cluster.cpus.dcache.tags.occ_task_id_percent::1024     0.800781                       # Percentage of cache occupancy per task id
system.cpu_cluster.cpus.dcache.tags.pwrStateResidencyTicks::UNDEFINED    674328750                       # Cumulative time (in ticks) in various power states
system.cpu_cluster.cpus.dcache.tags.sampled_refs          559                       # Sample count of references to valid blocks.
system.cpu_cluster.cpus.dcache.tags.tag_accesses      7977671                       # Number of tag accesses
system.cpu_cluster.cpus.dcache.tags.tagsinuse   246.427302                       # Cycle average of tags in use
system.cpu_cluster.cpus.dcache.tags.total_refs       996900                       # Total number of references to valid blocks.
system.cpu_cluster.cpus.dcache.tags.warmup_cycle       152500                       # Cycle when the warmup percentage was hit.
system.cpu_cluster.cpus.dcache.writebacks::.writebacks          244                       # number of writebacks
system.cpu_cluster.cpus.dcache.writebacks::total          244                       # number of writebacks
system.cpu_cluster.cpus.discardedOps             5209                       # Number of ops (including micro ops) which were discarded before commit
system.cpu_cluster.cpus.dstage2_mmu.stage2_tlb.accesses            0                       # DTB accesses
system.cpu_cluster.cpus.dstage2_mmu.stage2_tlb.align_faults            0                       # Number of TLB faults due to alignment restrictions
system.cpu_cluster.cpus.dstage2_mmu.stage2_tlb.domain_faults            0                       # Number of TLB faults due to domain restrictions
system.cpu_cluster.cpus.dstage2_mmu.stage2_tlb.flush_entries            0                       # Number of entries that have been flushed from TLB
system.cpu_cluster.cpus.dstage2_mmu.stage2_tlb.flush_tlb            0                       # Number of times complete TLB was flushed
system.cpu_cluster.cpus.dstage2_mmu.stage2_tlb.flush_tlb_asid            0                       # Number of times TLB was flushed by ASID
system.cpu_cluster.cpus.dstage2_mmu.stage2_tlb.flush_tlb_mva            0                       # Number of times TLB was flushed by MVA
system.cpu_cluster.cpus.dstage2_mmu.stage2_tlb.flush_tlb_mva_asid            0                       # Number of times TLB was flushed by MVA & ASID
system.cpu_cluster.cpus.dstage2_mmu.stage2_tlb.hits            0                       # DTB hits
system.cpu_cluster.cpus.dstage2_mmu.stage2_tlb.inst_accesses            0                       # ITB inst accesses
system.cpu_cluster.cpus.dstage2_mmu.stage2_tlb.inst_hits            0                       # ITB inst hits
system.cpu_cluster.cpus.dstage2_mmu.stage2_tlb.inst_misses            0                       # ITB inst misses
system.cpu_cluster.cpus.dstage2_mmu.stage2_tlb.misses            0                       # DTB misses
system.cpu_cluster.cpus.dstage2_mmu.stage2_tlb.perms_faults            0                       # Number of TLB faults due to permissions restrictions
system.cpu_cluster.cpus.dstage2_mmu.stage2_tlb.prefetch_faults            0                       # Number of TLB faults due to prefetch
system.cpu_cluster.cpus.dstage2_mmu.stage2_tlb.read_accesses            0                       # DTB read accesses
system.cpu_cluster.cpus.dstage2_mmu.stage2_tlb.read_hits            0                       # DTB read hits
system.cpu_cluster.cpus.dstage2_mmu.stage2_tlb.read_misses            0                       # DTB read misses
system.cpu_cluster.cpus.dstage2_mmu.stage2_tlb.walker.pwrStateResidencyTicks::UNDEFINED    674328750                       # Cumulative time (in ticks) in various power states
system.cpu_cluster.cpus.dstage2_mmu.stage2_tlb.walker.walkRequestOrigin_Requested::Data            0                       # Table walker requests started/completed, data/inst
system.cpu_cluster.cpus.dstage2_mmu.stage2_tlb.walker.walkRequestOrigin_Requested::Inst            0                       # Table walker requests started/completed, data/inst
system.cpu_cluster.cpus.dstage2_mmu.stage2_tlb.walker.walkRequestOrigin_Requested::total            0                       # Table walker requests started/completed, data/inst
system.cpu_cluster.cpus.dstage2_mmu.stage2_tlb.walker.walkRequestOrigin_Completed::Data            0                       # Table walker requests started/completed, data/inst
system.cpu_cluster.cpus.dstage2_mmu.stage2_tlb.walker.walkRequestOrigin_Completed::Inst            0                       # Table walker requests started/completed, data/inst
system.cpu_cluster.cpus.dstage2_mmu.stage2_tlb.walker.walkRequestOrigin_Completed::total            0                       # Table walker requests started/completed, data/inst
system.cpu_cluster.cpus.dstage2_mmu.stage2_tlb.walker.walkRequestOrigin::total            0                       # Table walker requests started/completed, data/inst
system.cpu_cluster.cpus.dstage2_mmu.stage2_tlb.walker.walks            0                       # Table walker walks requested
system.cpu_cluster.cpus.dstage2_mmu.stage2_tlb.write_accesses            0                       # DTB write accesses
system.cpu_cluster.cpus.dstage2_mmu.stage2_tlb.write_hits            0                       # DTB write hits
system.cpu_cluster.cpus.dstage2_mmu.stage2_tlb.write_misses            0                       # DTB write misses
system.cpu_cluster.cpus.dtb.accesses                0                       # DTB accesses
system.cpu_cluster.cpus.dtb.align_faults            0                       # Number of TLB faults due to alignment restrictions
system.cpu_cluster.cpus.dtb.domain_faults            0                       # Number of TLB faults due to domain restrictions
system.cpu_cluster.cpus.dtb.flush_entries            0                       # Number of entries that have been flushed from TLB
system.cpu_cluster.cpus.dtb.flush_tlb               0                       # Number of times complete TLB was flushed
system.cpu_cluster.cpus.dtb.flush_tlb_asid            0                       # Number of times TLB was flushed by ASID
system.cpu_cluster.cpus.dtb.flush_tlb_mva            0                       # Number of times TLB was flushed by MVA
system.cpu_cluster.cpus.dtb.flush_tlb_mva_asid            0                       # Number of times TLB was flushed by MVA & ASID
system.cpu_cluster.cpus.dtb.hits                    0                       # DTB hits
system.cpu_cluster.cpus.dtb.inst_accesses            0                       # ITB inst accesses
system.cpu_cluster.cpus.dtb.inst_hits               0                       # ITB inst hits
system.cpu_cluster.cpus.dtb.inst_misses             0                       # ITB inst misses
system.cpu_cluster.cpus.dtb.misses                  0                       # DTB misses
system.cpu_cluster.cpus.dtb.perms_faults            0                       # Number of TLB faults due to permissions restrictions
system.cpu_cluster.cpus.dtb.prefetch_faults            0                       # Number of TLB faults due to prefetch
system.cpu_cluster.cpus.dtb.read_accesses            0                       # DTB read accesses
system.cpu_cluster.cpus.dtb.read_hits               0                       # DTB read hits
system.cpu_cluster.cpus.dtb.read_misses             0                       # DTB read misses
system.cpu_cluster.cpus.dtb.walker.pwrStateResidencyTicks::UNDEFINED    674328750                       # Cumulative time (in ticks) in various power states
system.cpu_cluster.cpus.dtb.walker.walkRequestOrigin_Requested::Data            0                       # Table walker requests started/completed, data/inst
system.cpu_cluster.cpus.dtb.walker.walkRequestOrigin_Requested::Inst            0                       # Table walker requests started/completed, data/inst
system.cpu_cluster.cpus.dtb.walker.walkRequestOrigin_Requested::total            0                       # Table walker requests started/completed, data/inst
system.cpu_cluster.cpus.dtb.walker.walkRequestOrigin_Completed::Data            0                       # Table walker requests started/completed, data/inst
system.cpu_cluster.cpus.dtb.walker.walkRequestOrigin_Completed::Inst            0                       # Table walker requests started/completed, data/inst
system.cpu_cluster.cpus.dtb.walker.walkRequestOrigin_Completed::total            0                       # Table walker requests started/completed, data/inst
system.cpu_cluster.cpus.dtb.walker.walkRequestOrigin::total            0                       # Table walker requests started/completed, data/inst
system.cpu_cluster.cpus.dtb.walker.walks            0                       # Table walker walks requested
system.cpu_cluster.cpus.dtb.write_accesses            0                       # DTB write accesses
system.cpu_cluster.cpus.dtb.write_hits              0                       # DTB write hits
system.cpu_cluster.cpus.dtb.write_misses            0                       # DTB write misses
system.cpu_cluster.cpus.dtb_walker_cache.avg_blocked_cycles::no_mshrs          nan                       # average number of cycles each access was blocked
system.cpu_cluster.cpus.dtb_walker_cache.avg_blocked_cycles::no_targets          nan                       # average number of cycles each access was blocked
system.cpu_cluster.cpus.dtb_walker_cache.blocked::no_mshrs            0                       # number of cycles access was blocked
system.cpu_cluster.cpus.dtb_walker_cache.blocked::no_targets            0                       # number of cycles access was blocked
system.cpu_cluster.cpus.dtb_walker_cache.blocked_cycles::no_mshrs            0                       # number of cycles access was blocked
system.cpu_cluster.cpus.dtb_walker_cache.blocked_cycles::no_targets            0                       # number of cycles access was blocked
system.cpu_cluster.cpus.dtb_walker_cache.pwrStateResidencyTicks::UNDEFINED    674328750                       # Cumulative time (in ticks) in various power states
system.cpu_cluster.cpus.dtb_walker_cache.replacements            0                       # number of replacements
system.cpu_cluster.cpus.dtb_walker_cache.tags.avg_refs          nan                       # Average number of references to valid blocks.
system.cpu_cluster.cpus.dtb_walker_cache.tags.data_accesses            0                       # Number of data accesses
system.cpu_cluster.cpus.dtb_walker_cache.tags.pwrStateResidencyTicks::UNDEFINED    674328750                       # Cumulative time (in ticks) in various power states
system.cpu_cluster.cpus.dtb_walker_cache.tags.sampled_refs            0                       # Sample count of references to valid blocks.
system.cpu_cluster.cpus.dtb_walker_cache.tags.tag_accesses            0                       # Number of tag accesses
system.cpu_cluster.cpus.dtb_walker_cache.tags.tagsinuse            0                       # Cycle average of tags in use
system.cpu_cluster.cpus.dtb_walker_cache.tags.total_refs            0                       # Total number of references to valid blocks.
system.cpu_cluster.cpus.dtb_walker_cache.tags.warmup_cycle            0                       # Cycle when the warmup percentage was hit.
system.cpu_cluster.cpus.fetch2.amo_instructions            0                       # Number of memory atomic instructions successfully decoded
system.cpu_cluster.cpus.fetch2.fp_instructions            0                       # Number of floating point instructions successfully decoded
system.cpu_cluster.cpus.fetch2.int_instructions       777316                       # Number of integer instructions successfully decoded
system.cpu_cluster.cpus.fetch2.load_instructions       926569                       # Number of memory load instructions successfully decoded
system.cpu_cluster.cpus.fetch2.store_instructions       158431                       # Number of memory store instructions successfully decoded
system.cpu_cluster.cpus.fetch2.vec_instructions            0                       # Number of SIMD instructions successfully decoded
system.cpu_cluster.cpus.icache.ReadReq_accesses::.cpu_cluster.cpus.inst       318911                       # number of ReadReq accesses(hits+misses)
system.cpu_cluster.cpus.icache.ReadReq_accesses::total       318911                       # number of ReadReq accesses(hits+misses)
system.cpu_cluster.cpus.icache.ReadReq_avg_miss_latency::.cpu_cluster.cpus.inst 62624.713959                       # average ReadReq miss latency
system.cpu_cluster.cpus.icache.ReadReq_avg_miss_latency::total 62624.713959                       # average ReadReq miss latency
system.cpu_cluster.cpus.icache.ReadReq_avg_mshr_miss_latency::.cpu_cluster.cpus.inst 62375.286041                       # average ReadReq mshr miss latency
system.cpu_cluster.cpus.icache.ReadReq_avg_mshr_miss_latency::total 62375.286041                       # average ReadReq mshr miss latency
system.cpu_cluster.cpus.icache.ReadReq_hits::.cpu_cluster.cpus.inst       318474                       # number of ReadReq hits
system.cpu_cluster.cpus.icache.ReadReq_hits::total       318474                       # number of ReadReq hits
system.cpu_cluster.cpus.icache.ReadReq_miss_latency::.cpu_cluster.cpus.inst     27367000                       # number of ReadReq miss cycles
system.cpu_cluster.cpus.icache.ReadReq_miss_latency::total     27367000                       # number of ReadReq miss cycles
system.cpu_cluster.cpus.icache.ReadReq_miss_rate::.cpu_cluster.cpus.inst     0.001370                       # miss rate for ReadReq accesses
system.cpu_cluster.cpus.icache.ReadReq_miss_rate::total     0.001370                       # miss rate for ReadReq accesses
system.cpu_cluster.cpus.icache.ReadReq_misses::.cpu_cluster.cpus.inst          437                       # number of ReadReq misses
system.cpu_cluster.cpus.icache.ReadReq_misses::total          437                       # number of ReadReq misses
system.cpu_cluster.cpus.icache.ReadReq_mshr_miss_latency::.cpu_cluster.cpus.inst     27258000                       # number of ReadReq MSHR miss cycles
system.cpu_cluster.cpus.icache.ReadReq_mshr_miss_latency::total     27258000                       # number of ReadReq MSHR miss cycles
system.cpu_cluster.cpus.icache.ReadReq_mshr_miss_rate::.cpu_cluster.cpus.inst     0.001370                       # mshr miss rate for ReadReq accesses
system.cpu_cluster.cpus.icache.ReadReq_mshr_miss_rate::total     0.001370                       # mshr miss rate for ReadReq accesses
system.cpu_cluster.cpus.icache.ReadReq_mshr_misses::.cpu_cluster.cpus.inst          437                       # number of ReadReq MSHR misses
system.cpu_cluster.cpus.icache.ReadReq_mshr_misses::total          437                       # number of ReadReq MSHR misses
system.cpu_cluster.cpus.icache.avg_blocked_cycles::no_mshrs          nan                       # average number of cycles each access was blocked
system.cpu_cluster.cpus.icache.avg_blocked_cycles::no_targets          nan                       # average number of cycles each access was blocked
system.cpu_cluster.cpus.icache.blocked::no_mshrs            0                       # number of cycles access was blocked
system.cpu_cluster.cpus.icache.blocked::no_targets            0                       # number of cycles access was blocked
system.cpu_cluster.cpus.icache.blocked_cycles::no_mshrs            0                       # number of cycles access was blocked
system.cpu_cluster.cpus.icache.blocked_cycles::no_targets            0                       # number of cycles access was blocked
system.cpu_cluster.cpus.icache.demand_accesses::.cpu_cluster.cpus.inst       318911                       # number of demand (read+write) accesses
system.cpu_cluster.cpus.icache.demand_accesses::total       318911                       # number of demand (read+write) accesses
system.cpu_cluster.cpus.icache.demand_avg_miss_latency::.cpu_cluster.cpus.inst 62624.713959                       # average overall miss latency
system.cpu_cluster.cpus.icache.demand_avg_miss_latency::total 62624.713959                       # average overall miss latency
system.cpu_cluster.cpus.icache.demand_avg_mshr_miss_latency::.cpu_cluster.cpus.inst 62375.286041                       # average overall mshr miss latency
system.cpu_cluster.cpus.icache.demand_avg_mshr_miss_latency::total 62375.286041                       # average overall mshr miss latency
system.cpu_cluster.cpus.icache.demand_hits::.cpu_cluster.cpus.inst       318474                       # number of demand (read+write) hits
system.cpu_cluster.cpus.icache.demand_hits::total       318474                       # number of demand (read+write) hits
system.cpu_cluster.cpus.icache.demand_miss_latency::.cpu_cluster.cpus.inst     27367000                       # number of demand (read+write) miss cycles
system.cpu_cluster.cpus.icache.demand_miss_latency::total     27367000                       # number of demand (read+write) miss cycles
system.cpu_cluster.cpus.icache.demand_miss_rate::.cpu_cluster.cpus.inst     0.001370                       # miss rate for demand accesses
system.cpu_cluster.cpus.icache.demand_miss_rate::total     0.001370                       # miss rate for demand accesses
system.cpu_cluster.cpus.icache.demand_misses::.cpu_cluster.cpus.inst          437                       # number of demand (read+write) misses
system.cpu_cluster.cpus.icache.demand_misses::total          437                       # number of demand (read+write) misses
system.cpu_cluster.cpus.icache.demand_mshr_miss_latency::.cpu_cluster.cpus.inst     27258000                       # number of demand (read+write) MSHR miss cycles
system.cpu_cluster.cpus.icache.demand_mshr_miss_latency::total     27258000                       # number of demand (read+write) MSHR miss cycles
system.cpu_cluster.cpus.icache.demand_mshr_miss_rate::.cpu_cluster.cpus.inst     0.001370                       # mshr miss rate for demand accesses
system.cpu_cluster.cpus.icache.demand_mshr_miss_rate::total     0.001370                       # mshr miss rate for demand accesses
system.cpu_cluster.cpus.icache.demand_mshr_misses::.cpu_cluster.cpus.inst          437                       # number of demand (read+write) MSHR misses
system.cpu_cluster.cpus.icache.demand_mshr_misses::total          437                       # number of demand (read+write) MSHR misses
system.cpu_cluster.cpus.icache.overall_accesses::.cpu_cluster.cpus.inst       318911                       # number of overall (read+write) accesses
system.cpu_cluster.cpus.icache.overall_accesses::total       318911                       # number of overall (read+write) accesses
system.cpu_cluster.cpus.icache.overall_avg_miss_latency::.cpu_cluster.cpus.inst 62624.713959                       # average overall miss latency
system.cpu_cluster.cpus.icache.overall_avg_miss_latency::total 62624.713959                       # average overall miss latency
system.cpu_cluster.cpus.icache.overall_avg_mshr_miss_latency::.cpu_cluster.cpus.inst 62375.286041                       # average overall mshr miss latency
system.cpu_cluster.cpus.icache.overall_avg_mshr_miss_latency::total 62375.286041                       # average overall mshr miss latency
system.cpu_cluster.cpus.icache.overall_hits::.cpu_cluster.cpus.inst       318474                       # number of overall hits
system.cpu_cluster.cpus.icache.overall_hits::total       318474                       # number of overall hits
system.cpu_cluster.cpus.icache.overall_miss_latency::.cpu_cluster.cpus.inst     27367000                       # number of overall miss cycles
system.cpu_cluster.cpus.icache.overall_miss_latency::total     27367000                       # number of overall miss cycles
system.cpu_cluster.cpus.icache.overall_miss_rate::.cpu_cluster.cpus.inst     0.001370                       # miss rate for overall accesses
system.cpu_cluster.cpus.icache.overall_miss_rate::total     0.001370                       # miss rate for overall accesses
system.cpu_cluster.cpus.icache.overall_misses::.cpu_cluster.cpus.inst          437                       # number of overall misses
system.cpu_cluster.cpus.icache.overall_misses::total          437                       # number of overall misses
system.cpu_cluster.cpus.icache.overall_mshr_miss_latency::.cpu_cluster.cpus.inst     27258000                       # number of overall MSHR miss cycles
system.cpu_cluster.cpus.icache.overall_mshr_miss_latency::total     27258000                       # number of overall MSHR miss cycles
system.cpu_cluster.cpus.icache.overall_mshr_miss_rate::.cpu_cluster.cpus.inst     0.001370                       # mshr miss rate for overall accesses
system.cpu_cluster.cpus.icache.overall_mshr_miss_rate::total     0.001370                       # mshr miss rate for overall accesses
system.cpu_cluster.cpus.icache.overall_mshr_misses::.cpu_cluster.cpus.inst          437                       # number of overall MSHR misses
system.cpu_cluster.cpus.icache.overall_mshr_misses::total          437                       # number of overall MSHR misses
system.cpu_cluster.cpus.icache.pwrStateResidencyTicks::UNDEFINED    674328750                       # Cumulative time (in ticks) in various power states
system.cpu_cluster.cpus.icache.replacements          180                       # number of replacements
system.cpu_cluster.cpus.icache.tags.age_task_id_blocks_1024::0          141                       # Occupied blocks per task id
system.cpu_cluster.cpus.icache.tags.age_task_id_blocks_1024::1           10                       # Occupied blocks per task id
system.cpu_cluster.cpus.icache.tags.age_task_id_blocks_1024::2          105                       # Occupied blocks per task id
system.cpu_cluster.cpus.icache.tags.avg_refs   731.444954                       # Average number of references to valid blocks.
system.cpu_cluster.cpus.icache.tags.data_accesses      2551724                       # Number of data accesses
system.cpu_cluster.cpus.icache.tags.occ_blocks::.cpu_cluster.cpus.inst   229.761630                       # Average occupied blocks per requestor
system.cpu_cluster.cpus.icache.tags.occ_percent::.cpu_cluster.cpus.inst     0.897506                       # Average percentage of cache occupancy
system.cpu_cluster.cpus.icache.tags.occ_percent::total     0.897506                       # Average percentage of cache occupancy
system.cpu_cluster.cpus.icache.tags.occ_task_id_blocks::1024          256                       # Occupied blocks per task id
system.cpu_cluster.cpus.icache.tags.occ_task_id_percent::1024            1                       # Percentage of cache occupancy per task id
system.cpu_cluster.cpus.icache.tags.pwrStateResidencyTicks::UNDEFINED    674328750                       # Cumulative time (in ticks) in various power states
system.cpu_cluster.cpus.icache.tags.sampled_refs          436                       # Sample count of references to valid blocks.
system.cpu_cluster.cpus.icache.tags.tag_accesses      2551724                       # Number of tag accesses
system.cpu_cluster.cpus.icache.tags.tagsinuse   229.761630                       # Cycle average of tags in use
system.cpu_cluster.cpus.icache.tags.total_refs       318910                       # Total number of references to valid blocks.
system.cpu_cluster.cpus.icache.tags.warmup_cycle        78500                       # Cycle when the warmup percentage was hit.
system.cpu_cluster.cpus.idleCycles             234520                       # Total number of cycles that the object has spent stopped
system.cpu_cluster.cpus.ipc                  0.704970                       # IPC: instructions per cycle
system.cpu_cluster.cpus.istage2_mmu.stage2_tlb.accesses            0                       # DTB accesses
system.cpu_cluster.cpus.istage2_mmu.stage2_tlb.align_faults            0                       # Number of TLB faults due to alignment restrictions
system.cpu_cluster.cpus.istage2_mmu.stage2_tlb.domain_faults            0                       # Number of TLB faults due to domain restrictions
system.cpu_cluster.cpus.istage2_mmu.stage2_tlb.flush_entries            0                       # Number of entries that have been flushed from TLB
system.cpu_cluster.cpus.istage2_mmu.stage2_tlb.flush_tlb            0                       # Number of times complete TLB was flushed
system.cpu_cluster.cpus.istage2_mmu.stage2_tlb.flush_tlb_asid            0                       # Number of times TLB was flushed by ASID
system.cpu_cluster.cpus.istage2_mmu.stage2_tlb.flush_tlb_mva            0                       # Number of times TLB was flushed by MVA
system.cpu_cluster.cpus.istage2_mmu.stage2_tlb.flush_tlb_mva_asid            0                       # Number of times TLB was flushed by MVA & ASID
system.cpu_cluster.cpus.istage2_mmu.stage2_tlb.hits            0                       # DTB hits
system.cpu_cluster.cpus.istage2_mmu.stage2_tlb.inst_accesses            0                       # ITB inst accesses
system.cpu_cluster.cpus.istage2_mmu.stage2_tlb.inst_hits            0                       # ITB inst hits
system.cpu_cluster.cpus.istage2_mmu.stage2_tlb.inst_misses            0                       # ITB inst misses
system.cpu_cluster.cpus.istage2_mmu.stage2_tlb.misses            0                       # DTB misses
system.cpu_cluster.cpus.istage2_mmu.stage2_tlb.perms_faults            0                       # Number of TLB faults due to permissions restrictions
system.cpu_cluster.cpus.istage2_mmu.stage2_tlb.prefetch_faults            0                       # Number of TLB faults due to prefetch
system.cpu_cluster.cpus.istage2_mmu.stage2_tlb.read_accesses            0                       # DTB read accesses
system.cpu_cluster.cpus.istage2_mmu.stage2_tlb.read_hits            0                       # DTB read hits
system.cpu_cluster.cpus.istage2_mmu.stage2_tlb.read_misses            0                       # DTB read misses
system.cpu_cluster.cpus.istage2_mmu.stage2_tlb.walker.pwrStateResidencyTicks::UNDEFINED    674328750                       # Cumulative time (in ticks) in various power states
system.cpu_cluster.cpus.istage2_mmu.stage2_tlb.walker.walkRequestOrigin_Requested::Data            0                       # Table walker requests started/completed, data/inst
system.cpu_cluster.cpus.istage2_mmu.stage2_tlb.walker.walkRequestOrigin_Requested::Inst            0                       # Table walker requests started/completed, data/inst
system.cpu_cluster.cpus.istage2_mmu.stage2_tlb.walker.walkRequestOrigin_Requested::total            0                       # Table walker requests started/completed, data/inst
system.cpu_cluster.cpus.istage2_mmu.stage2_tlb.walker.walkRequestOrigin_Completed::Data            0                       # Table walker requests started/completed, data/inst
system.cpu_cluster.cpus.istage2_mmu.stage2_tlb.walker.walkRequestOrigin_Completed::Inst            0                       # Table walker requests started/completed, data/inst
system.cpu_cluster.cpus.istage2_mmu.stage2_tlb.walker.walkRequestOrigin_Completed::total            0                       # Table walker requests started/completed, data/inst
system.cpu_cluster.cpus.istage2_mmu.stage2_tlb.walker.walkRequestOrigin::total            0                       # Table walker requests started/completed, data/inst
system.cpu_cluster.cpus.istage2_mmu.stage2_tlb.walker.walks            0                       # Table walker walks requested
system.cpu_cluster.cpus.istage2_mmu.stage2_tlb.write_accesses            0                       # DTB write accesses
system.cpu_cluster.cpus.istage2_mmu.stage2_tlb.write_hits            0                       # DTB write hits
system.cpu_cluster.cpus.istage2_mmu.stage2_tlb.write_misses            0                       # DTB write misses
system.cpu_cluster.cpus.itb.accesses                0                       # DTB accesses
system.cpu_cluster.cpus.itb.align_faults            0                       # Number of TLB faults due to alignment restrictions
system.cpu_cluster.cpus.itb.domain_faults            0                       # Number of TLB faults due to domain restrictions
system.cpu_cluster.cpus.itb.flush_entries            0                       # Number of entries that have been flushed from TLB
system.cpu_cluster.cpus.itb.flush_tlb               0                       # Number of times complete TLB was flushed
system.cpu_cluster.cpus.itb.flush_tlb_asid            0                       # Number of times TLB was flushed by ASID
system.cpu_cluster.cpus.itb.flush_tlb_mva            0                       # Number of times TLB was flushed by MVA
system.cpu_cluster.cpus.itb.flush_tlb_mva_asid            0                       # Number of times TLB was flushed by MVA & ASID
system.cpu_cluster.cpus.itb.hits                    0                       # DTB hits
system.cpu_cluster.cpus.itb.inst_accesses            0                       # ITB inst accesses
system.cpu_cluster.cpus.itb.inst_hits               0                       # ITB inst hits
system.cpu_cluster.cpus.itb.inst_misses             0                       # ITB inst misses
system.cpu_cluster.cpus.itb.misses                  0                       # DTB misses
system.cpu_cluster.cpus.itb.perms_faults            0                       # Number of TLB faults due to permissions restrictions
system.cpu_cluster.cpus.itb.prefetch_faults            0                       # Number of TLB faults due to prefetch
system.cpu_cluster.cpus.itb.read_accesses            0                       # DTB read accesses
system.cpu_cluster.cpus.itb.read_hits               0                       # DTB read hits
system.cpu_cluster.cpus.itb.read_misses             0                       # DTB read misses
system.cpu_cluster.cpus.itb.walker.pwrStateResidencyTicks::UNDEFINED    674328750                       # Cumulative time (in ticks) in various power states
system.cpu_cluster.cpus.itb.walker.walkRequestOrigin_Requested::Data            0                       # Table walker requests started/completed, data/inst
system.cpu_cluster.cpus.itb.walker.walkRequestOrigin_Requested::Inst            0                       # Table walker requests started/completed, data/inst
system.cpu_cluster.cpus.itb.walker.walkRequestOrigin_Requested::total            0                       # Table walker requests started/completed, data/inst
system.cpu_cluster.cpus.itb.walker.walkRequestOrigin_Completed::Data            0                       # Table walker requests started/completed, data/inst
system.cpu_cluster.cpus.itb.walker.walkRequestOrigin_Completed::Inst            0                       # Table walker requests started/completed, data/inst
system.cpu_cluster.cpus.itb.walker.walkRequestOrigin_Completed::total            0                       # Table walker requests started/completed, data/inst
system.cpu_cluster.cpus.itb.walker.walkRequestOrigin::total            0                       # Table walker requests started/completed, data/inst
system.cpu_cluster.cpus.itb.walker.walks            0                       # Table walker walks requested
system.cpu_cluster.cpus.itb.write_accesses            0                       # DTB write accesses
system.cpu_cluster.cpus.itb.write_hits              0                       # DTB write hits
system.cpu_cluster.cpus.itb.write_misses            0                       # DTB write misses
system.cpu_cluster.cpus.itb_walker_cache.avg_blocked_cycles::no_mshrs          nan                       # average number of cycles each access was blocked
system.cpu_cluster.cpus.itb_walker_cache.avg_blocked_cycles::no_targets          nan                       # average number of cycles each access was blocked
system.cpu_cluster.cpus.itb_walker_cache.blocked::no_mshrs            0                       # number of cycles access was blocked
system.cpu_cluster.cpus.itb_walker_cache.blocked::no_targets            0                       # number of cycles access was blocked
system.cpu_cluster.cpus.itb_walker_cache.blocked_cycles::no_mshrs            0                       # number of cycles access was blocked
system.cpu_cluster.cpus.itb_walker_cache.blocked_cycles::no_targets            0                       # number of cycles access was blocked
system.cpu_cluster.cpus.itb_walker_cache.pwrStateResidencyTicks::UNDEFINED    674328750                       # Cumulative time (in ticks) in various power states
system.cpu_cluster.cpus.itb_walker_cache.replacements            0                       # number of replacements
system.cpu_cluster.cpus.itb_walker_cache.tags.avg_refs          nan                       # Average number of references to valid blocks.
system.cpu_cluster.cpus.itb_walker_cache.tags.data_accesses            0                       # Number of data accesses
system.cpu_cluster.cpus.itb_walker_cache.tags.pwrStateResidencyTicks::UNDEFINED    674328750                       # Cumulative time (in ticks) in various power states
system.cpu_cluster.cpus.itb_walker_cache.tags.sampled_refs            0                       # Sample count of references to valid blocks.
system.cpu_cluster.cpus.itb_walker_cache.tags.tag_accesses            0                       # Number of tag accesses
system.cpu_cluster.cpus.itb_walker_cache.tags.tagsinuse            0                       # Cycle average of tags in use
system.cpu_cluster.cpus.itb_walker_cache.tags.total_refs            0                       # Total number of references to valid blocks.
system.cpu_cluster.cpus.itb_walker_cache.tags.warmup_cycle            0                       # Cycle when the warmup percentage was hit.
system.cpu_cluster.cpus.numCycles             2697315                       # number of cpu cycles simulated
system.cpu_cluster.cpus.numFetchSuspends            0                       # Number of times Execute suspended instruction fetching
system.cpu_cluster.cpus.numWorkItemsCompleted            0                       # number of work items this cpu completed
system.cpu_cluster.cpus.numWorkItemsStarted            0                       # number of work items this cpu started
system.cpu_cluster.cpus.op_class_0::No_OpClass            0      0.00%      0.00% # Class of committed instruction
system.cpu_cluster.cpus.op_class_0::IntAlu       636724     33.29%     33.29% # Class of committed instruction
system.cpu_cluster.cpus.op_class_0::IntMult       206454     10.80%     44.09% # Class of committed instruction
system.cpu_cluster.cpus.op_class_0::IntDiv            0      0.00%     44.09% # Class of committed instruction
system.cpu_cluster.cpus.op_class_0::FloatAdd            0      0.00%     44.09% # Class of committed instruction
system.cpu_cluster.cpus.op_class_0::FloatCmp            0      0.00%     44.09% # Class of committed instruction
system.cpu_cluster.cpus.op_class_0::FloatCvt            0      0.00%     44.09% # Class of committed instruction
system.cpu_cluster.cpus.op_class_0::FloatMult            0      0.00%     44.09% # Class of committed instruction
system.cpu_cluster.cpus.op_class_0::FloatMultAcc            0      0.00%     44.09% # Class of committed instruction
system.cpu_cluster.cpus.op_class_0::FloatDiv            0      0.00%     44.09% # Class of committed instruction
system.cpu_cluster.cpus.op_class_0::FloatMisc            0      0.00%     44.09% # Class of committed instruction
system.cpu_cluster.cpus.op_class_0::FloatSqrt            0      0.00%     44.09% # Class of committed instruction
system.cpu_cluster.cpus.op_class_0::SimdAdd            0      0.00%     44.09% # Class of committed instruction
system.cpu_cluster.cpus.op_class_0::SimdAddAcc            0      0.00%     44.09% # Class of committed instruction
system.cpu_cluster.cpus.op_class_0::SimdAlu            0      0.00%     44.09% # Class of committed instruction
system.cpu_cluster.cpus.op_class_0::SimdCmp            0      0.00%     44.09% # Class of committed instruction
system.cpu_cluster.cpus.op_class_0::SimdCvt            0      0.00%     44.09% # Class of committed instruction
system.cpu_cluster.cpus.op_class_0::SimdMisc            0      0.00%     44.09% # Class of committed instruction
system.cpu_cluster.cpus.op_class_0::SimdMult            0      0.00%     44.09% # Class of committed instruction
system.cpu_cluster.cpus.op_class_0::SimdMultAcc            0      0.00%     44.09% # Class of committed instruction
system.cpu_cluster.cpus.op_class_0::SimdShift            0      0.00%     44.09% # Class of committed instruction
system.cpu_cluster.cpus.op_class_0::SimdShiftAcc            0      0.00%     44.09% # Class of committed instruction
system.cpu_cluster.cpus.op_class_0::SimdDiv            0      0.00%     44.09% # Class of committed instruction
system.cpu_cluster.cpus.op_class_0::SimdSqrt            0      0.00%     44.09% # Class of committed instruction
system.cpu_cluster.cpus.op_class_0::SimdFloatAdd            0      0.00%     44.09% # Class of committed instruction
system.cpu_cluster.cpus.op_class_0::SimdFloatAlu            0      0.00%     44.09% # Class of committed instruction
system.cpu_cluster.cpus.op_class_0::SimdFloatCmp            0      0.00%     44.09% # Class of committed instruction
system.cpu_cluster.cpus.op_class_0::SimdFloatCvt            0      0.00%     44.09% # Class of committed instruction
system.cpu_cluster.cpus.op_class_0::SimdFloatDiv            0      0.00%     44.09% # Class of committed instruction
system.cpu_cluster.cpus.op_class_0::SimdFloatMisc            0      0.00%     44.09% # Class of committed instruction
system.cpu_cluster.cpus.op_class_0::SimdFloatMult            0      0.00%     44.09% # Class of committed instruction
system.cpu_cluster.cpus.op_class_0::SimdFloatMultAcc            0      0.00%     44.09% # Class of committed instruction
system.cpu_cluster.cpus.op_class_0::SimdFloatSqrt            0      0.00%     44.09% # Class of committed instruction
system.cpu_cluster.cpus.op_class_0::SimdReduceAdd            0      0.00%     44.09% # Class of committed instruction
system.cpu_cluster.cpus.op_class_0::SimdReduceAlu            0      0.00%     44.09% # Class of committed instruction
system.cpu_cluster.cpus.op_class_0::SimdReduceCmp            0      0.00%     44.09% # Class of committed instruction
system.cpu_cluster.cpus.op_class_0::SimdFloatReduceAdd            0      0.00%     44.09% # Class of committed instruction
system.cpu_cluster.cpus.op_class_0::SimdFloatReduceCmp            0      0.00%     44.09% # Class of committed instruction
system.cpu_cluster.cpus.op_class_0::SimdAes            0      0.00%     44.09% # Class of committed instruction
system.cpu_cluster.cpus.op_class_0::SimdAesMix            0      0.00%     44.09% # Class of committed instruction
system.cpu_cluster.cpus.op_class_0::SimdSha1Hash            0      0.00%     44.09% # Class of committed instruction
system.cpu_cluster.cpus.op_class_0::SimdSha1Hash2            0      0.00%     44.09% # Class of committed instruction
system.cpu_cluster.cpus.op_class_0::SimdSha256Hash            0      0.00%     44.09% # Class of committed instruction
system.cpu_cluster.cpus.op_class_0::SimdSha256Hash2            0      0.00%     44.09% # Class of committed instruction
system.cpu_cluster.cpus.op_class_0::SimdShaSigma2            0      0.00%     44.09% # Class of committed instruction
system.cpu_cluster.cpus.op_class_0::SimdShaSigma3            0      0.00%     44.09% # Class of committed instruction
system.cpu_cluster.cpus.op_class_0::SimdPredAlu            0      0.00%     44.09% # Class of committed instruction
system.cpu_cluster.cpus.op_class_0::MemRead       908995     47.53%     91.62% # Class of committed instruction
system.cpu_cluster.cpus.op_class_0::MemWrite       160206      8.38%    100.00% # Class of committed instruction
system.cpu_cluster.cpus.op_class_0::FloatMemRead            0      0.00%    100.00% # Class of committed instruction
system.cpu_cluster.cpus.op_class_0::FloatMemWrite            0      0.00%    100.00% # Class of committed instruction
system.cpu_cluster.cpus.op_class_0::IprAccess            0      0.00%    100.00% # Class of committed instruction
system.cpu_cluster.cpus.op_class_0::InstPrefetch            0      0.00%    100.00% # Class of committed instruction
system.cpu_cluster.cpus.op_class_0::total      1912379                       # Class of committed instruction
system.cpu_cluster.cpus.pwrStateResidencyTicks::ON    674328750                       # Cumulative time (in ticks) in various power states
system.cpu_cluster.cpus.tickCycles            2462795                       # Number of cycles that the object actually ticked
system.cpu_cluster.cpus.workload.numSyscalls           11                       # Number of system calls
system.cpu_cluster.l2.ReadExReq_accesses::.cpu_cluster.cpus.data          333                       # number of ReadExReq accesses(hits+misses)
system.cpu_cluster.l2.ReadExReq_accesses::total          333                       # number of ReadExReq accesses(hits+misses)
system.cpu_cluster.l2.ReadExReq_avg_miss_latency::.cpu_cluster.cpus.data 111049.848943                       # average ReadExReq miss latency
system.cpu_cluster.l2.ReadExReq_avg_miss_latency::total 111049.848943                       # average ReadExReq miss latency
system.cpu_cluster.l2.ReadExReq_avg_mshr_miss_latency::.cpu_cluster.cpus.data 109799.848943                       # average ReadExReq mshr miss latency
system.cpu_cluster.l2.ReadExReq_avg_mshr_miss_latency::total 109799.848943                       # average ReadExReq mshr miss latency
system.cpu_cluster.l2.ReadExReq_hits::.cpu_cluster.cpus.data            2                       # number of ReadExReq hits
system.cpu_cluster.l2.ReadExReq_hits::total            2                       # number of ReadExReq hits
system.cpu_cluster.l2.ReadExReq_miss_latency::.cpu_cluster.cpus.data     36757500                       # number of ReadExReq miss cycles
system.cpu_cluster.l2.ReadExReq_miss_latency::total     36757500                       # number of ReadExReq miss cycles
system.cpu_cluster.l2.ReadExReq_miss_rate::.cpu_cluster.cpus.data     0.993994                       # miss rate for ReadExReq accesses
system.cpu_cluster.l2.ReadExReq_miss_rate::total     0.993994                       # miss rate for ReadExReq accesses
system.cpu_cluster.l2.ReadExReq_misses::.cpu_cluster.cpus.data          331                       # number of ReadExReq misses
system.cpu_cluster.l2.ReadExReq_misses::total          331                       # number of ReadExReq misses
system.cpu_cluster.l2.ReadExReq_mshr_miss_latency::.cpu_cluster.cpus.data     36343750                       # number of ReadExReq MSHR miss cycles
system.cpu_cluster.l2.ReadExReq_mshr_miss_latency::total     36343750                       # number of ReadExReq MSHR miss cycles
system.cpu_cluster.l2.ReadExReq_mshr_miss_rate::.cpu_cluster.cpus.data     0.993994                       # mshr miss rate for ReadExReq accesses
system.cpu_cluster.l2.ReadExReq_mshr_miss_rate::total     0.993994                       # mshr miss rate for ReadExReq accesses
system.cpu_cluster.l2.ReadExReq_mshr_misses::.cpu_cluster.cpus.data          331                       # number of ReadExReq MSHR misses
system.cpu_cluster.l2.ReadExReq_mshr_misses::total          331                       # number of ReadExReq MSHR misses
system.cpu_cluster.l2.ReadSharedReq_accesses::.cpu_cluster.cpus.inst          437                       # number of ReadSharedReq accesses(hits+misses)
system.cpu_cluster.l2.ReadSharedReq_accesses::.cpu_cluster.cpus.data          147                       # number of ReadSharedReq accesses(hits+misses)
system.cpu_cluster.l2.ReadSharedReq_accesses::.cpu_cluster.cpus.dcache.prefetcher           79                       # number of ReadSharedReq accesses(hits+misses)
system.cpu_cluster.l2.ReadSharedReq_accesses::total          663                       # number of ReadSharedReq accesses(hits+misses)
system.cpu_cluster.l2.ReadSharedReq_avg_miss_latency::.cpu_cluster.cpus.inst 67912.247475                       # average ReadSharedReq miss latency
system.cpu_cluster.l2.ReadSharedReq_avg_miss_latency::.cpu_cluster.cpus.data 68467.032967                       # average ReadSharedReq miss latency
system.cpu_cluster.l2.ReadSharedReq_avg_miss_latency::.cpu_cluster.cpus.dcache.prefetcher 209391.793651                       # average ReadSharedReq miss latency
system.cpu_cluster.l2.ReadSharedReq_avg_miss_latency::total 84209.878182                       # average ReadSharedReq miss latency
system.cpu_cluster.l2.ReadSharedReq_avg_mshr_miss_latency::.cpu_cluster.cpus.inst 67157.760814                       # average ReadSharedReq mshr miss latency
system.cpu_cluster.l2.ReadSharedReq_avg_mshr_miss_latency::.cpu_cluster.cpus.data 67166.666667                       # average ReadSharedReq mshr miss latency
system.cpu_cluster.l2.ReadSharedReq_avg_mshr_miss_latency::.cpu_cluster.cpus.dcache.prefetcher 208141.793651                       # average ReadSharedReq mshr miss latency
system.cpu_cluster.l2.ReadSharedReq_avg_mshr_miss_latency::total 83426.617216                       # average ReadSharedReq mshr miss latency
system.cpu_cluster.l2.ReadSharedReq_hits::.cpu_cluster.cpus.inst           41                       # number of ReadSharedReq hits
system.cpu_cluster.l2.ReadSharedReq_hits::.cpu_cluster.cpus.data           56                       # number of ReadSharedReq hits
system.cpu_cluster.l2.ReadSharedReq_hits::.cpu_cluster.cpus.dcache.prefetcher           16                       # number of ReadSharedReq hits
system.cpu_cluster.l2.ReadSharedReq_hits::total          113                       # number of ReadSharedReq hits
system.cpu_cluster.l2.ReadSharedReq_miss_latency::.cpu_cluster.cpus.inst     26893250                       # number of ReadSharedReq miss cycles
system.cpu_cluster.l2.ReadSharedReq_miss_latency::.cpu_cluster.cpus.data      6230500                       # number of ReadSharedReq miss cycles
system.cpu_cluster.l2.ReadSharedReq_miss_latency::.cpu_cluster.cpus.dcache.prefetcher     13191683                       # number of ReadSharedReq miss cycles
system.cpu_cluster.l2.ReadSharedReq_miss_latency::total     46315433                       # number of ReadSharedReq miss cycles
system.cpu_cluster.l2.ReadSharedReq_miss_rate::.cpu_cluster.cpus.inst     0.906178                       # miss rate for ReadSharedReq accesses
system.cpu_cluster.l2.ReadSharedReq_miss_rate::.cpu_cluster.cpus.data     0.619048                       # miss rate for ReadSharedReq accesses
system.cpu_cluster.l2.ReadSharedReq_miss_rate::.cpu_cluster.cpus.dcache.prefetcher     0.797468                       # miss rate for ReadSharedReq accesses
system.cpu_cluster.l2.ReadSharedReq_miss_rate::total     0.829563                       # miss rate for ReadSharedReq accesses
system.cpu_cluster.l2.ReadSharedReq_misses::.cpu_cluster.cpus.inst          396                       # number of ReadSharedReq misses
system.cpu_cluster.l2.ReadSharedReq_misses::.cpu_cluster.cpus.data           91                       # number of ReadSharedReq misses
system.cpu_cluster.l2.ReadSharedReq_misses::.cpu_cluster.cpus.dcache.prefetcher           63                       # number of ReadSharedReq misses
system.cpu_cluster.l2.ReadSharedReq_misses::total          550                       # number of ReadSharedReq misses
system.cpu_cluster.l2.ReadSharedReq_mshr_hits::.cpu_cluster.cpus.inst            3                       # number of ReadSharedReq MSHR hits
system.cpu_cluster.l2.ReadSharedReq_mshr_hits::.cpu_cluster.cpus.data            1                       # number of ReadSharedReq MSHR hits
system.cpu_cluster.l2.ReadSharedReq_mshr_hits::total            4                       # number of ReadSharedReq MSHR hits
system.cpu_cluster.l2.ReadSharedReq_mshr_miss_latency::.cpu_cluster.cpus.inst     26393000                       # number of ReadSharedReq MSHR miss cycles
system.cpu_cluster.l2.ReadSharedReq_mshr_miss_latency::.cpu_cluster.cpus.data      6045000                       # number of ReadSharedReq MSHR miss cycles
system.cpu_cluster.l2.ReadSharedReq_mshr_miss_latency::.cpu_cluster.cpus.dcache.prefetcher     13112933                       # number of ReadSharedReq MSHR miss cycles
system.cpu_cluster.l2.ReadSharedReq_mshr_miss_latency::total     45550933                       # number of ReadSharedReq MSHR miss cycles
system.cpu_cluster.l2.ReadSharedReq_mshr_miss_rate::.cpu_cluster.cpus.inst     0.899314                       # mshr miss rate for ReadSharedReq accesses
system.cpu_cluster.l2.ReadSharedReq_mshr_miss_rate::.cpu_cluster.cpus.data     0.612245                       # mshr miss rate for ReadSharedReq accesses
system.cpu_cluster.l2.ReadSharedReq_mshr_miss_rate::.cpu_cluster.cpus.dcache.prefetcher     0.797468                       # mshr miss rate for ReadSharedReq accesses
system.cpu_cluster.l2.ReadSharedReq_mshr_miss_rate::total     0.823529                       # mshr miss rate for ReadSharedReq accesses
system.cpu_cluster.l2.ReadSharedReq_mshr_misses::.cpu_cluster.cpus.inst          393                       # number of ReadSharedReq MSHR misses
system.cpu_cluster.l2.ReadSharedReq_mshr_misses::.cpu_cluster.cpus.data           90                       # number of ReadSharedReq MSHR misses
system.cpu_cluster.l2.ReadSharedReq_mshr_misses::.cpu_cluster.cpus.dcache.prefetcher           63                       # number of ReadSharedReq MSHR misses
system.cpu_cluster.l2.ReadSharedReq_mshr_misses::total          546                       # number of ReadSharedReq MSHR misses
system.cpu_cluster.l2.WritebackDirty_accesses::.writebacks          244                       # number of WritebackDirty accesses(hits+misses)
system.cpu_cluster.l2.WritebackDirty_accesses::total          244                       # number of WritebackDirty accesses(hits+misses)
system.cpu_cluster.l2.WritebackDirty_hits::.writebacks          244                       # number of WritebackDirty hits
system.cpu_cluster.l2.WritebackDirty_hits::total          244                       # number of WritebackDirty hits
system.cpu_cluster.l2.avg_blocked_cycles::no_mshrs          nan                       # average number of cycles each access was blocked
system.cpu_cluster.l2.avg_blocked_cycles::no_targets          nan                       # average number of cycles each access was blocked
system.cpu_cluster.l2.blocked::no_mshrs             0                       # number of cycles access was blocked
system.cpu_cluster.l2.blocked::no_targets            0                       # number of cycles access was blocked
system.cpu_cluster.l2.blocked_cycles::no_mshrs            0                       # number of cycles access was blocked
system.cpu_cluster.l2.blocked_cycles::no_targets            0                       # number of cycles access was blocked
system.cpu_cluster.l2.demand_accesses::.cpu_cluster.cpus.inst          437                       # number of demand (read+write) accesses
system.cpu_cluster.l2.demand_accesses::.cpu_cluster.cpus.data          480                       # number of demand (read+write) accesses
system.cpu_cluster.l2.demand_accesses::.cpu_cluster.cpus.dcache.prefetcher           79                       # number of demand (read+write) accesses
system.cpu_cluster.l2.demand_accesses::total          996                       # number of demand (read+write) accesses
system.cpu_cluster.l2.demand_avg_miss_latency::.cpu_cluster.cpus.inst 67912.247475                       # average overall miss latency
system.cpu_cluster.l2.demand_avg_miss_latency::.cpu_cluster.cpus.data 101867.298578                       # average overall miss latency
system.cpu_cluster.l2.demand_avg_miss_latency::.cpu_cluster.cpus.dcache.prefetcher 209391.793651                       # average overall miss latency
system.cpu_cluster.l2.demand_avg_miss_latency::total 94293.908059                       # average overall miss latency
system.cpu_cluster.l2.demand_avg_mshr_miss_latency::.cpu_cluster.cpus.inst 67157.760814                       # average overall mshr miss latency
system.cpu_cluster.l2.demand_avg_mshr_miss_latency::.cpu_cluster.cpus.data 100685.866983                       # average overall mshr miss latency
system.cpu_cluster.l2.demand_avg_mshr_miss_latency::.cpu_cluster.cpus.dcache.prefetcher 208141.793651                       # average overall mshr miss latency
system.cpu_cluster.l2.demand_avg_mshr_miss_latency::total 93380.482326                       # average overall mshr miss latency
system.cpu_cluster.l2.demand_hits::.cpu_cluster.cpus.inst           41                       # number of demand (read+write) hits
system.cpu_cluster.l2.demand_hits::.cpu_cluster.cpus.data           58                       # number of demand (read+write) hits
system.cpu_cluster.l2.demand_hits::.cpu_cluster.cpus.dcache.prefetcher           16                       # number of demand (read+write) hits
system.cpu_cluster.l2.demand_hits::total          115                       # number of demand (read+write) hits
system.cpu_cluster.l2.demand_miss_latency::.cpu_cluster.cpus.inst     26893250                       # number of demand (read+write) miss cycles
system.cpu_cluster.l2.demand_miss_latency::.cpu_cluster.cpus.data     42988000                       # number of demand (read+write) miss cycles
system.cpu_cluster.l2.demand_miss_latency::.cpu_cluster.cpus.dcache.prefetcher     13191683                       # number of demand (read+write) miss cycles
system.cpu_cluster.l2.demand_miss_latency::total     83072933                       # number of demand (read+write) miss cycles
system.cpu_cluster.l2.demand_miss_rate::.cpu_cluster.cpus.inst     0.906178                       # miss rate for demand accesses
system.cpu_cluster.l2.demand_miss_rate::.cpu_cluster.cpus.data     0.879167                       # miss rate for demand accesses
system.cpu_cluster.l2.demand_miss_rate::.cpu_cluster.cpus.dcache.prefetcher     0.797468                       # miss rate for demand accesses
system.cpu_cluster.l2.demand_miss_rate::total     0.884538                       # miss rate for demand accesses
system.cpu_cluster.l2.demand_misses::.cpu_cluster.cpus.inst          396                       # number of demand (read+write) misses
system.cpu_cluster.l2.demand_misses::.cpu_cluster.cpus.data          422                       # number of demand (read+write) misses
system.cpu_cluster.l2.demand_misses::.cpu_cluster.cpus.dcache.prefetcher           63                       # number of demand (read+write) misses
system.cpu_cluster.l2.demand_misses::total          881                       # number of demand (read+write) misses
system.cpu_cluster.l2.demand_mshr_hits::.cpu_cluster.cpus.inst            3                       # number of demand (read+write) MSHR hits
system.cpu_cluster.l2.demand_mshr_hits::.cpu_cluster.cpus.data            1                       # number of demand (read+write) MSHR hits
[...]
system.mem_ctrls1.readPktSize::2                    0                       # Read request sizes (log2)
system.mem_ctrls1.readPktSize::3                    0                       # Read request sizes (log2)
system.mem_ctrls1.readPktSize::4                    0                       # Read request sizes (log2)
system.mem_ctrls1.readPktSize::5                    0                       # Read request sizes (log2)
system.mem_ctrls1.readPktSize::6                  438                       # Read request sizes (log2)
system.mem_ctrls1.readReqs                        438                       # Number of read requests accepted
system.mem_ctrls1.readRowHitRate                77.40                       # Row buffer hit rate for reads
system.mem_ctrls1.readRowHits                     339                       # Number of row buffer hits during reads
system.mem_ctrls1.servicedByWrQ                     0                       # Number of DRAM read bursts serviced by the write queue
system.mem_ctrls1.totBusLat                   2190000                       # Total ticks spent in databus transfers
system.mem_ctrls1.totGap                    673978000                       # Total gap between requests
system.mem_ctrls1.totMemAccLat               23017750                       # Total ticks spent from burst creation until serviced by the DRAM
system.mem_ctrls1.totQLat                    14805250                       # Total ticks spent queuing
system.mem_ctrls1.wrQLenPdf::0                      0                       # What write queue length does an incoming req see
system.mem_ctrls1.wrQLenPdf::1                      0                       # What write queue length does an incoming req see
system.mem_ctrls1.wrQLenPdf::2                      0                       # What write queue length does an incoming req see
system.mem_ctrls1.wrQLenPdf::3                      0                       # What write queue length does an incoming req see
system.mem_ctrls1.wrQLenPdf::4                      0                       # What write queue length does an incoming req see
system.mem_ctrls1.wrQLenPdf::5                      0                       # What write queue length does an incoming req see
system.mem_ctrls1.wrQLenPdf::6                      0                       # What write queue length does an incoming req see
system.mem_ctrls1.wrQLenPdf::7                      0                       # What write queue length does an incoming req see
system.mem_ctrls1.wrQLenPdf::8                      0                       # What write queue length does an incoming req see
system.mem_ctrls1.wrQLenPdf::9                      0                       # What write queue length does an incoming req see
system.mem_ctrls1.wrQLenPdf::10                     0                       # What write queue length does an incoming req see
system.mem_ctrls1.wrQLenPdf::11                     0                       # What write queue length does an incoming req see
system.mem_ctrls1.wrQLenPdf::12                     0                       # What write queue length does an incoming req see
system.mem_ctrls1.wrQLenPdf::13                     0                       # What write queue length does an incoming req see
system.mem_ctrls1.wrQLenPdf::14                     0                       # What write queue length does an incoming req see
system.mem_ctrls1.wrQLenPdf::15                     0                       # What write queue length does an incoming req see
system.mem_ctrls1.wrQLenPdf::16                     0                       # What write queue length does an incoming req see
system.mem_ctrls1.wrQLenPdf::17                     0                       # What write queue length does an incoming req see
system.mem_ctrls1.wrQLenPdf::18                     0                       # What write queue length does an incoming req see
system.mem_ctrls1.wrQLenPdf::19                     0                       # What write queue length does an incoming req see
system.mem_ctrls1.wrQLenPdf::20                     0                       # What write queue length does an incoming req see
system.mem_ctrls1.wrQLenPdf::21                     0                       # What write queue length does an incoming req see
system.mem_ctrls1.wrQLenPdf::22                     0                       # What write queue length does an incoming req see
system.mem_ctrls1.wrQLenPdf::23                     0                       # What write queue length does an incoming req see
system.mem_ctrls1.wrQLenPdf::24                     0                       # What write queue length does an incoming req see
system.mem_ctrls1.wrQLenPdf::25                     0                       # What write queue length does an incoming req see
system.mem_ctrls1.wrQLenPdf::26                     0                       # What write queue length does an incoming req see
system.mem_ctrls1.wrQLenPdf::27                     0                       # What write queue length does an incoming req see
system.mem_ctrls1.wrQLenPdf::28                     0                       # What write queue length does an incoming req see
system.mem_ctrls1.wrQLenPdf::29                     0                       # What write queue length does an incoming req see
system.mem_ctrls1.wrQLenPdf::30                     0                       # What write queue length does an incoming req see
system.mem_ctrls1.wrQLenPdf::31                     0                       # What write queue length does an incoming req see
system.mem_ctrls1.wrQLenPdf::32                     0                       # What write queue length does an incoming req see
system.mem_ctrls1.wrQLenPdf::33                     0                       # What write queue length does an incoming req see
system.mem_ctrls1.wrQLenPdf::34                     0                       # What write queue length does an incoming req see
system.mem_ctrls1.wrQLenPdf::35                     0                       # What write queue length does an incoming req see
system.mem_ctrls1.wrQLenPdf::36                     0                       # What write queue length does an incoming req see
system.mem_ctrls1.wrQLenPdf::37                     0                       # What write queue length does an incoming req see
system.mem_ctrls1.wrQLenPdf::38                     0                       # What write queue length does an incoming req see
system.mem_ctrls1.wrQLenPdf::39                     0                       # What write queue length does an incoming req see
system.mem_ctrls1.wrQLenPdf::40                     0                       # What write queue length does an incoming req see
system.mem_ctrls1.wrQLenPdf::41                     0                       # What write queue length does an incoming req see
system.mem_ctrls1.wrQLenPdf::42                     0                       # What write queue length does an incoming req see
system.mem_ctrls1.wrQLenPdf::43                     0                       # What write queue length does an incoming req see
system.mem_ctrls1.wrQLenPdf::44                     0                       # What write queue length does an incoming req see
system.mem_ctrls1.wrQLenPdf::45                     0                       # What write queue length does an incoming req see
system.mem_ctrls1.wrQLenPdf::46                     0                       # What write queue length does an incoming req see
system.mem_ctrls1.wrQLenPdf::47                     0                       # What write queue length does an incoming req see
system.mem_ctrls1.wrQLenPdf::48                     0                       # What write queue length does an incoming req see
system.mem_ctrls1.wrQLenPdf::49                     0                       # What write queue length does an incoming req see
system.mem_ctrls1.wrQLenPdf::50                     0                       # What write queue length does an incoming req see
system.mem_ctrls1.wrQLenPdf::51                     0                       # What write queue length does an incoming req see
system.mem_ctrls1.wrQLenPdf::52                     0                       # What write queue length does an incoming req see
system.mem_ctrls1.wrQLenPdf::53                     0                       # What write queue length does an incoming req see
system.mem_ctrls1.wrQLenPdf::54                     0                       # What write queue length does an incoming req see
system.mem_ctrls1.wrQLenPdf::55                     0                       # What write queue length does an incoming req see
system.mem_ctrls1.wrQLenPdf::56                     0                       # What write queue length does an incoming req see
system.mem_ctrls1.wrQLenPdf::57                     0                       # What write queue length does an incoming req see
system.mem_ctrls1.wrQLenPdf::58                     0                       # What write queue length does an incoming req see
system.mem_ctrls1.wrQLenPdf::59                     0                       # What write queue length does an incoming req see
system.mem_ctrls1.wrQLenPdf::60                     0                       # What write queue length does an incoming req see
system.mem_ctrls1.wrQLenPdf::61                     0                       # What write queue length does an incoming req see
system.mem_ctrls1.wrQLenPdf::62                     0                       # What write queue length does an incoming req see
system.mem_ctrls1.wrQLenPdf::63                     0                       # What write queue length does an incoming req see
system.mem_ctrls1.writeBursts                       0                       # Number of DRAM write bursts, including those merged in the write queue
system.mem_ctrls1.writePktSize::0                   0                       # Write request sizes (log2)
system.mem_ctrls1.writePktSize::1                   0                       # Write request sizes (log2)
system.mem_ctrls1.writePktSize::2                   0                       # Write request sizes (log2)
system.mem_ctrls1.writePktSize::3                   0                       # Write request sizes (log2)
system.mem_ctrls1.writePktSize::4                   0                       # Write request sizes (log2)
system.mem_ctrls1.writePktSize::5                   0                       # Write request sizes (log2)
system.mem_ctrls1.writePktSize::6                   0                       # Write request sizes (log2)
system.mem_ctrls1.writeReqs                         0                       # Number of write requests accepted
system.mem_ctrls1.writeRowHitRate                 nan                       # Row buffer hit rate for writes
system.mem_ctrls1.writeRowHits                      0                       # Number of row buffer hits during writes
system.mem_ctrls1_0.actBackEnergy             3244440                       # Energy for active background per rank (pJ)
system.mem_ctrls1_0.actEnergy                  307020                       # Energy for activate commands per rank (pJ)
system.mem_ctrls1_0.actPowerDownEnergy       12546270                       # Energy for active power-down per rank (pJ)
system.mem_ctrls1_0.averagePower           261.239455                       # Core power per rank (mW)
system.mem_ctrls1_0.memoryStateTime::IDLE       304000                       # Time in different power states
system.mem_ctrls1_0.memoryStateTime::REF      1300000                       # Time in different power states
system.mem_ctrls1_0.memoryStateTime::SREF    630634000                       # Time in different power states
system.mem_ctrls1_0.memoryStateTime::PRE_PDN      8636250                       # Time in different power states
system.mem_ctrls1_0.memoryStateTime::ACT      5932750                       # Time in different power states
system.mem_ctrls1_0.memoryStateTime::ACT_PDN     27521750                       # Time in different power states
system.mem_ctrls1_0.preBackEnergy              165120                       # Energy for precharge background per rank (pJ)
system.mem_ctrls1_0.preEnergy                  148005                       # Energy for precharge commands per rank (pJ)
system.mem_ctrls1_0.prePowerDownEnergy        3316320                       # Energy for precharge power-down per rank (pJ)
system.mem_ctrls1_0.readEnergy                1456560                       # Energy for read commands per rank (pJ)
system.mem_ctrls1_0.refreshEnergy        3073200.000000                       # Energy for refresh commands per rank (pJ)
system.mem_ctrls1_0.selfRefreshEnergy       151904340                       # Energy for self refresh per rank (pJ)
system.mem_ctrls1_0.totalEnergy             176161275                       # Total energy per rank (pJ)
system.mem_ctrls1_0.totalIdleTime           666470000                       # Total Idle time Per DRAM Rank
system.mem_ctrls1_0.writeEnergy                     0                       # Energy for write commands per rank (pJ)
system.mem_ctrls1_1.actBackEnergy             7928130                       # Energy for active background per rank (pJ)
system.mem_ctrls1_1.actEnergy                  399840                       # Energy for activate commands per rank (pJ)
system.mem_ctrls1_1.actPowerDownEnergy       90203070                       # Energy for active power-down per rank (pJ)
system.mem_ctrls1_1.averagePower           394.451260                       # Core power per rank (mW)
system.mem_ctrls1_1.memoryStateTime::IDLE      4674000                       # Time in different power states
system.mem_ctrls1_1.memoryStateTime::REF     11440000                       # Time in different power states
system.mem_ctrls1_1.memoryStateTime::SREF    323653000                       # Time in different power states
system.mem_ctrls1_1.memoryStateTime::PRE_PDN    129793749                       # Time in different power states
system.mem_ctrls1_1.memoryStateTime::ACT      6948000                       # Time in different power states
system.mem_ctrls1_1.memoryStateTime::ACT_PDN    197820001                       # Time in different power states
system.mem_ctrls1_1.preBackEnergy             2181120                       # Energy for precharge background per rank (pJ)
system.mem_ctrls1_1.preEnergy                  208725                       # Energy for precharge commands per rank (pJ)
system.mem_ctrls1_1.prePowerDownEnergy       49841280                       # Energy for precharge power-down per rank (pJ)
system.mem_ctrls1_1.readEnergy                1670760                       # Energy for read commands per rank (pJ)
system.mem_ctrls1_1.refreshEnergy        27044160.000000                       # Energy for refresh commands per rank (pJ)
system.mem_ctrls1_1.selfRefreshEnergy        86512740                       # Energy for self refresh per rank (pJ)
system.mem_ctrls1_1.totalEnergy             265989825                       # Total energy per rank (pJ)
system.mem_ctrls1_1.totalIdleTime           648780500                       # Total Idle time Per DRAM Rank
system.mem_ctrls1_1.writeEnergy                     0                       # Energy for write commands per rank (pJ)
system.membus.pkt_count_system.cpu_cluster.l2.mem_side::system.mem_ctrls0.port          876                       # Packet count per connected master and slave (bytes)
system.membus.pkt_count_system.cpu_cluster.l2.mem_side::system.mem_ctrls1.port          876                       # Packet count per connected master and slave (bytes)
system.membus.pkt_count_system.cpu_cluster.l2.mem_side::total         1752                       # Packet count per connected master and slave (bytes)
system.membus.pkt_count::total                   1752                       # Packet count per connected master and slave (bytes)
system.membus.pkt_size_system.cpu_cluster.l2.mem_side::system.mem_ctrls0.port        28032                       # Cumulative packet size per connected master and slave (bytes)
system.membus.pkt_size_system.cpu_cluster.l2.mem_side::system.mem_ctrls1.port        28032                       # Cumulative packet size per connected master and slave (bytes)
system.membus.pkt_size_system.cpu_cluster.l2.mem_side::total        56064                       # Cumulative packet size per connected master and slave (bytes)
system.membus.pkt_size::total                   56064                       # Cumulative packet size per connected master and slave (bytes)
system.membus.pwrStateResidencyTicks::UNDEFINED    674328750                       # Cumulative time (in ticks) in various power states
system.membus.reqLayer0.occupancy              564784                       # Layer occupancy (ticks)
system.membus.reqLayer0.utilization               0.1                       # Layer utilization (%)
system.membus.reqLayer1.occupancy              557032                       # Layer occupancy (ticks)
system.membus.reqLayer1.utilization               0.1                       # Layer utilization (%)
system.membus.respLayer1.occupancy            4636488                       # Layer occupancy (ticks)
system.membus.respLayer1.utilization              0.7                       # Layer utilization (%)
system.membus.snoopTraffic                          0                       # Total snoop traffic (bytes)
system.membus.snoop_fanout::samples               876                       # Request fanout histogram
system.membus.snoop_fanout::mean                    0                       # Request fanout histogram
system.membus.snoop_fanout::stdev                   0                       # Request fanout histogram
system.membus.snoop_fanout::underflows              0      0.00%      0.00% # Request fanout histogram
system.membus.snoop_fanout::0                     876    100.00%    100.00% # Request fanout histogram
system.membus.snoop_fanout::1                       0      0.00%    100.00% # Request fanout histogram
system.membus.snoop_fanout::overflows               0      0.00%    100.00% # Request fanout histogram
system.membus.snoop_fanout::min_value               0                       # Request fanout histogram
system.membus.snoop_fanout::max_value               0                       # Request fanout histogram
system.membus.snoop_fanout::total                 876                       # Request fanout histogram
system.membus.snoop_filter.hit_multi_requests            0                       # Number of requests hitting in the snoop filter with multiple (>1) holders of the requested data.
system.membus.snoop_filter.hit_multi_snoops            0                       # Number of snoops hitting in the snoop filter with multiple (>1) holders of the requested data.
system.membus.snoop_filter.hit_single_requests            0                       # Number of requests hitting in the snoop filter with a single holder of the requested data.
system.membus.snoop_filter.hit_single_snoops            0                       # Number of snoops hitting in the snoop filter with a single holder of the requested data.
system.membus.snoop_filter.tot_requests           876                       # Total number of requests made to the snoop filter.
system.membus.snoop_filter.tot_snoops               0                       # Total number of snoops made to the snoop filter.
system.membus.snoops                                0                       # Total snoops (count)
system.membus.trans_dist::ReadResp                545                       # Transaction distribution
system.membus.trans_dist::ReadExReq               331                       # Transaction distribution
system.membus.trans_dist::ReadExResp              331                       # Transaction distribution
system.membus.trans_dist::ReadSharedReq           545                       # Transaction distribution
system.voltage_domain.voltage                3.300000                       # Voltage in Volts

---------- End Simulation Statistics   ----------
